


 34 37  0  0  0  0  0  0  0  0999 V2000
  -22.8524    7.8666   25.2771 O   0  0  0  0  0  0  0  0  0  0  0  0
  -21.1268    7.0456   20.6774 C   0  0  0  0  0  0  0  0  0  0  0  0
  -21.1518    7.9366   19.6000 C   0  0  0  0  0  0  0  0  0  0  0  0
  -21.7382    9.0858   20.0285 N   0  0  0  0  0  0  0  0  0  0  0  0
  -22.0682    8.9273   21.3173 C   0  0  0  0  0  0  0  0  0  0  0  0
  -22.6888    9.8245   22.1875 C   0  0  0  0  0  0  0  0  0  0  0  0
  -22.9261    9.4277   23.4842 C   0  0  0  0  0  0  0  0  0  0  0  0
  -22.5707    8.1802   23.9419 C   0  0  0  0  0  0  0  0  0  0  0  0
  -21.9575    7.2914   23.0845 C   0  0  0  0  0  0  0  0  0  0  0  0
  -21.7121    7.6811   21.7700 C   0  0  0  0  0  0  0  0  0  0  0  0
  -21.8736    9.9137   19.3971 H   0  0  0  0  0  0  0  0  0  0  0  0
  -20.5814    5.6689   20.6774 C   0  0  0  0  0  0  0  0  0  0  0  0
  -19.0338    4.1443   19.6161 N   0  0  0  0  0  0  0  0  0  0  0  0
  -19.5091    5.5085   19.6103 C   0  0  0  0  0  0  0  0  0  0  0  0
  -18.7717    3.8753   20.5794 H   0  0  0  0  0  0  0  0  0  0  0  0
  -18.2200    4.0896   18.9354 H   0  0  0  0  0  0  0  0  0  0  0  0
  -19.7944    3.5445   19.2070 H   0  0  0  0  0  0  0  0  0  0  0  0
  -21.8233    7.7505   26.1936 C   0  0  0  0  0  0  0  0  0  0  0  0
  -21.4188    9.0200   26.7992 C   0  0  0  0  0  0  0  0  0  0  0  0
  -21.7433    9.1213   28.0574 O   0  0  0  0  0  0  0  0  0  0  0  0
  -20.7537   10.1094   26.2570 N   0  0  0  0  0  0  0  0  0  0  0  0
  -20.2280   10.2587   24.9178 C   0  0  0  0  0  0  0  0  0  0  0  0
  -18.9301   11.0813   24.9537 C   0  0  0  0  0  0  0  0  0  0  0  0
  -19.2593   12.3897   25.4874 N   0  0  0  0  0  0  0  0  0  0  0  0
  -20.4952   12.4954   26.2370 C   0  0  0  0  0  0  0  0  0  0  0  0
  -20.5358   11.2802   27.1379 C   0  0  0  0  0  0  0  0  0  0  0  0
  -18.3735   13.4715   25.2569 C   0  0  0  0  0  0  0  0  0  0  0  0
  -17.1513   13.1835   24.6771 C   0  0  0  0  0  0  0  0  0  0  0  0
  -16.2279   14.2066   24.4205 C   0  0  0  0  0  0  0  0  0  0  0  0
  -16.5205   15.5194   24.7412 C   0  0  0  0  0  0  0  0  0  0  0  0
  -17.7413   15.8037   25.3200 C   0  0  0  0  0  0  0  0  0  0  0  0
  -18.6601   14.7806   25.5744 C   0  0  0  0  0  0  0  0  0  0  0  0
  -15.5603   16.5792   24.4743 C   0  0  0  0  0  0  0  0  0  0  0  0
  -14.8014   17.4347   24.2679 N   0  0  0  0  0  0  0  0  0  0  0  0
 13 14  1  0
 14 12  1  0
 12  2  1  0
  2  3  2  0
  3  4  1  0
  4  5  1  0
  5  6  2  0
  6  7  1  0
  7  8  2  0
  8  1  1  0
  1 18  1  0
 18 19  1  0
 19 20  2  0
 19 21  1  0
 21 22  1  0
 22 23  1  0
 23 24  1  0
 24 25  1  0
 25 26  1  0
 24 27  1  0
 27 28  2  0
 28 29  1  0
 29 30  2  0
 30 31  1  0
 31 32  2  0
 30 33  1  0
 33 34  3  0
  8  9  1  0
  9 10  2  0
 10  2  1  0
 10  5  1  0
 26 21  1  0
 32 27  1  0
 13 15  1  0
 13 16  1  0
 13 17  1  0
  4 11  1  0
M  CHG 1  13   1
M  END
> <minimizedAffinity>
-8.82406

> <CNNscore>
0.4891613722

> <CNNaffinity>
6.6906127930

> <CNN_VS>
3.2727892399

> <CNNaffinity_variance>
0.4313769341

$$$$



 34 37  0  0  0  0  0  0  0  0999 V2000
  -21.4793    7.7119   27.6033 O   0  0  0  0  0  0  0  0  0  0  0  0
  -23.0313    5.1283   23.6378 C   0  0  0  0  0  0  0  0  0  0  0  0
  -24.0890    4.2147   23.5925 C   0  0  0  0  0  0  0  0  0  0  0  0
  -24.6315    4.1497   24.8373 N   0  0  0  0  0  0  0  0  0  0  0  0
  -23.9474    4.9839   25.6318 C   0  0  0  0  0  0  0  0  0  0  0  0
  -24.1291    5.2615   26.9873 C   0  0  0  0  0  0  0  0  0  0  0  0
  -23.2891    6.1688   27.5926 C   0  0  0  0  0  0  0  0  0  0  0  0
  -22.2831    6.8045   26.9027 C   0  0  0  0  0  0  0  0  0  0  0  0
  -22.1010    6.5324   25.5633 C   0  0  0  0  0  0  0  0  0  0  0  0
  -22.9445    5.6161   24.9396 C   0  0  0  0  0  0  0  0  0  0  0  0
  -25.4475    3.5276   25.0600 H   0  0  0  0  0  0  0  0  0  0  0  0
  -22.1491    5.5201   22.5148 C   0  0  0  0  0  0  0  0  0  0  0  0
  -21.6779    7.2404   20.8825 N   0  0  0  0  0  0  0  0  0  0  0  0
  -22.4043    6.9613   22.0997 C   0  0  0  0  0  0  0  0  0  0  0  0
  -20.6894    6.9609   20.9999 H   0  0  0  0  0  0  0  0  0  0  0  0
  -21.7933    8.2759   20.6754 H   0  0  0  0  0  0  0  0  0  0  0  0
  -22.1659    6.7328   20.1015 H   0  0  0  0  0  0  0  0  0  0  0  0
  -21.8130    9.0536   27.6332 C   0  0  0  0  0  0  0  0  0  0  0  0
  -23.2540    9.3092   27.6358 C   0  0  0  0  0  0  0  0  0  0  0  0
  -23.8091    9.1390   28.8026 O   0  0  0  0  0  0  0  0  0  0  0  0
  -24.1049    9.7005   26.6131 N   0  0  0  0  0  0  0  0  0  0  0  0
  -23.7681   10.0135   25.2417 C   0  0  0  0  0  0  0  0  0  0  0  0
  -24.6726   11.1440   24.7255 C   0  0  0  0  0  0  0  0  0  0  0  0
  -26.0416   10.6671   24.7853 N   0  0  0  0  0  0  0  0  0  0  0  0
  -26.3012    9.5399   25.6587 C   0  0  0  0  0  0  0  0  0  0  0  0
  -25.5447    9.8268   26.9375 C   0  0  0  0  0  0  0  0  0  0  0  0
  -27.0327   11.3159   24.0076 C   0  0  0  0  0  0  0  0  0  0  0  0
  -27.6889   10.5619   23.0516 C   0  0  0  0  0  0  0  0  0  0  0  0
  -28.6810   11.1408   22.2481 C   0  0  0  0  0  0  0  0  0  0  0  0
  -29.0216   12.4729   22.3954 C   0  0  0  0  0  0  0  0  0  0  0  0
  -28.3648   13.2228   23.3505 C   0  0  0  0  0  0  0  0  0  0  0  0
  -27.3757   12.6420   24.1504 C   0  0  0  0  0  0  0  0  0  0  0  0
  -30.0513   13.0713   21.5600 C   0  0  0  0  0  0  0  0  0  0  0  0
  -30.8729   13.5385   20.8838 N   0  0  0  0  0  0  0  0  0  0  0  0
 13 14  1  0
 14 12  1  0
 12  2  1  0
  2  3  2  0
  3  4  1  0
  4  5  1  0
  5  6  2  0
  6  7  1  0
  7  8  2  0
  8  1  1  0
  1 18  1  0
 18 19  1  0
 19 20  2  0
 19 21  1  0
 21 22  1  0
 22 23  1  0
 23 24  1  0
 24 25  1  0
 25 26  1  0
 24 27  1  0
 27 28  2  0
 28 29  1  0
 29 30  2  0
 30 31  1  0
 31 32  2  0
 30 33  1  0
 33 34  3  0
  8  9  1  0
  9 10  2  0
 10  2  1  0
 10  5  1  0
 26 21  1  0
 32 27  1  0
 13 15  1  0
 13 16  1  0
 13 17  1  0
  4 11  1  0
M  CHG 1  13   1
M  END
> <minimizedAffinity>
-9.94355

> <CNNscore>
0.4115961194

> <CNNaffinity>
6.4433546066

> <CNN_VS>
2.6520597935

> <CNNaffinity_variance>
0.2664316297

$$$$



 34 37  0  0  0  0  0  0  0  0999 V2000
  -21.5066    9.3405   22.3789 O   0  0  0  0  0  0  0  0  0  0  0  0
  -20.7264   13.6229   19.9580 C   0  0  0  0  0  0  0  0  0  0  0  0
  -21.2543   13.9942   18.7175 C   0  0  0  0  0  0  0  0  0  0  0  0
  -22.0303   12.9691   18.2759 N   0  0  0  0  0  0  0  0  0  0  0  0
  -21.9938   11.9955   19.1955 C   0  0  0  0  0  0  0  0  0  0  0  0
  -22.6279   10.7524   19.1922 C   0  0  0  0  0  0  0  0  0  0  0  0
  -22.4359    9.9118   20.2653 C   0  0  0  0  0  0  0  0  0  0  0  0
  -21.6418   10.2613   21.3328 C   0  0  0  0  0  0  0  0  0  0  0  0
  -21.0138   11.4887   21.3389 C   0  0  0  0  0  0  0  0  0  0  0  0
  -21.2002   12.3481   20.2588 C   0  0  0  0  0  0  0  0  0  0  0  0
  -22.5404   13.0086   17.3590 H   0  0  0  0  0  0  0  0  0  0  0  0
  -19.8233   14.4260   20.8138 C   0  0  0  0  0  0  0  0  0  0  0  0
  -17.9703   15.9790   20.8210 N   0  0  0  0  0  0  0  0  0  0  0  0
  -18.9568   15.3512   19.9726 C   0  0  0  0  0  0  0  0  0  0  0  0
  -18.4393   16.4019   21.6396 H   0  0  0  0  0  0  0  0  0  0  0  0
  -17.4503   16.6911   20.2284 H   0  0  0  0  0  0  0  0  0  0  0  0
  -17.2630   15.2444   21.0778 H   0  0  0  0  0  0  0  0  0  0  0  0
  -22.1732    9.5455   23.5730 C   0  0  0  0  0  0  0  0  0  0  0  0
  -21.5607   10.5613   24.4303 C   0  0  0  0  0  0  0  0  0  0  0  0
  -22.2815   10.8630   25.4734 O   0  0  0  0  0  0  0  0  0  0  0  0
  -20.3557   11.2374   24.3124 N   0  0  0  0  0  0  0  0  0  0  0  0
  -19.3351   11.0736   23.3006 C   0  0  0  0  0  0  0  0  0  0  0  0
  -17.9442   11.2764   23.9226 C   0  0  0  0  0  0  0  0  0  0  0  0
  -17.8926   12.6310   24.4397 N   0  0  0  0  0  0  0  0  0  0  0  0
  -19.1631   13.2891   24.6704 C   0  0  0  0  0  0  0  0  0  0  0  0
  -20.0455   12.2582   25.3400 C   0  0  0  0  0  0  0  0  0  0  0  0
  -16.6312   13.2259   24.6908 C   0  0  0  0  0  0  0  0  0  0  0  0
  -15.8766   12.7088   25.7282 C   0  0  0  0  0  0  0  0  0  0  0  0
  -14.6191   13.2495   26.0303 C   0  0  0  0  0  0  0  0  0  0  0  0
  -14.1104   14.3072   25.2992 C   0  0  0  0  0  0  0  0  0  0  0  0
  -14.8661   14.8213   24.2643 C   0  0  0  0  0  0  0  0  0  0  0  0
  -16.1201   14.2793   23.9656 C   0  0  0  0  0  0  0  0  0  0  0  0
  -12.8053   14.8668   25.6150 C   0  0  0  0  0  0  0  0  0  0  0  0
  -11.7649   15.3239   25.8581 N   0  0  0  0  0  0  0  0  0  0  0  0
 13 14  1  0
 14 12  1  0
 12  2  1  0
  2  3  2  0
  3  4  1  0
  4  5  1  0
  5  6  2  0
  6  7  1  0
  7  8  2  0
  8  1  1  0
  1 18  1  0
 18 19  1  0
 19 20  2  0
 19 21  1  0
 21 22  1  0
 22 23  1  0
 23 24  1  0
 24 25  1  0
 25 26  1  0
 24 27  1  0
 27 28  2  0
 28 29  1  0
 29 30  2  0
 30 31  1  0
 31 32  2  0
 30 33  1  0
 33 34  3  0
  8  9  1  0
  9 10  2  0
 10  2  1  0
 10  5  1  0
 26 21  1  0
 32 27  1  0
 13 15  1  0
 13 16  1  0
 13 17  1  0
  4 11  1  0
M  CHG 1  13   1
M  END
> <minimizedAffinity>
-5.20922

> <CNNscore>
0.3737067282

> <CNNaffinity>
6.1940269470

> <CNN_VS>
2.3147494793

> <CNNaffinity_variance>
0.1796089113

$$$$



 34 37  0  0  0  0  0  0  0  0999 V2000
  -22.7008    8.3052   27.0254 O   0  0  0  0  0  0  0  0  0  0  0  0
  -22.0645    8.5746   22.0927 C   0  0  0  0  0  0  0  0  0  0  0  0
  -22.0374    7.5069   21.1902 C   0  0  0  0  0  0  0  0  0  0  0  0
  -22.2170    6.3617   21.9005 N   0  0  0  0  0  0  0  0  0  0  0  0
  -22.3511    6.6916   23.1921 C   0  0  0  0  0  0  0  0  0  0  0  0
  -22.5548    5.8661   24.2986 C   0  0  0  0  0  0  0  0  0  0  0  0
  -22.6637    6.4462   25.5423 C   0  0  0  0  0  0  0  0  0  0  0  0
  -22.5777    7.8071   25.7227 C   0  0  0  0  0  0  0  0  0  0  0  0
  -22.3763    8.6254   24.6314 C   0  0  0  0  0  0  0  0  0  0  0  0
  -22.2645    8.0505   23.3676 C   0  0  0  0  0  0  0  0  0  0  0  0
  -22.2358    5.4169   21.4429 H   0  0  0  0  0  0  0  0  0  0  0  0
  -21.9094   10.0118   21.7712 C   0  0  0  0  0  0  0  0  0  0  0  0
  -21.6920   11.5848   19.9481 N   0  0  0  0  0  0  0  0  0  0  0  0
  -21.4944   10.2030   20.3201 C   0  0  0  0  0  0  0  0  0  0  0  0
  -22.6532   11.8740   20.1963 H   0  0  0  0  0  0  0  0  0  0  0  0
  -21.4917   11.6644   18.9078 H   0  0  0  0  0  0  0  0  0  0  0  0
  -20.9478   12.1500   20.4302 H   0  0  0  0  0  0  0  0  0  0  0  0
  -21.7117    9.1140   27.5544 C   0  0  0  0  0  0  0  0  0  0  0  0
  -21.7651   10.5011   27.0905 C   0  0  0  0  0  0  0  0  0  0  0  0
  -22.8957   11.0933   27.3545 O   0  0  0  0  0  0  0  0  0  0  0  0
  -20.8190   11.2712   26.4310 N   0  0  0  0  0  0  0  0  0  0  0  0
  -19.4702   10.9042   26.0594 C   0  0  0  0  0  0  0  0  0  0  0  0
  -18.5445   12.1257   26.1756 C   0  0  0  0  0  0  0  0  0  0  0  0
  -19.0370   13.1335   25.2554 N   0  0  0  0  0  0  0  0  0  0  0  0
  -20.4105   12.9964   24.8133 C   0  0  0  0  0  0  0  0  0  0  0  0
  -21.2089   12.6488   26.0508 C   0  0  0  0  0  0  0  0  0  0  0  0
  -18.1708   14.1786   24.8487 C   0  0  0  0  0  0  0  0  0  0  0  0
  -16.8115   13.9231   24.8628 C   0  0  0  0  0  0  0  0  0  0  0  0
  -15.8986   14.9124   24.4718 C   0  0  0  0  0  0  0  0  0  0  0  0
  -16.3381   16.1591   24.0659 C   0  0  0  0  0  0  0  0  0  0  0  0
  -17.6955   16.4110   24.0531 C   0  0  0  0  0  0  0  0  0  0  0  0
  -18.6034   15.4217   24.4436 C   0  0  0  0  0  0  0  0  0  0  0  0
  -15.3885   17.1841   23.6612 C   0  0  0  0  0  0  0  0  0  0  0  0
  -14.6199   17.9962   23.3447 N   0  0  0  0  0  0  0  0  0  0  0  0
 13 14  1  0
 14 12  1  0
 12  2  1  0
  2  3  2  0
  3  4  1  0
  4  5  1  0
  5  6  2  0
  6  7  1  0
  7  8  2  0
  8  1  1  0
  1 18  1  0
 18 19  1  0
 19 20  2  0
 19 21  1  0
 21 22  1  0
 22 23  1  0
 23 24  1  0
 24 25  1  0
 25 26  1  0
 24 27  1  0
 27 28  2  0
 28 29  1  0
 29 30  2  0
 30 31  1  0
 31 32  2  0
 30 33  1  0
 33 34  3  0
  8  9  1  0
  9 10  2  0
 10  2  1  0
 10  5  1  0
 26 21  1  0
 32 27  1  0
 13 15  1  0
 13 16  1  0
 13 17  1  0
  4 11  1  0
M  CHG 1  13   1
M  END
> <minimizedAffinity>
-7.20548

> <CNNscore>
0.2619454861

> <CNNaffinity>
6.0065660477

> <CNN_VS>
1.5733928680

> <CNNaffinity_variance>
0.0544086322

$$$$



 34 37  0  0  0  0  0  0  0  0999 V2000
  -22.0931    9.5874   25.2752 O   0  0  0  0  0  0  0  0  0  0  0  0
  -21.9700   10.7003   20.4219 C   0  0  0  0  0  0  0  0  0  0  0  0
  -21.9245    9.7980   19.3546 C   0  0  0  0  0  0  0  0  0  0  0  0
  -21.9188    8.5425   19.8758 N   0  0  0  0  0  0  0  0  0  0  0  0
  -21.9588    8.6476   21.2108 C   0  0  0  0  0  0  0  0  0  0  0  0
  -21.9705    7.6405   22.1768 C   0  0  0  0  0  0  0  0  0  0  0  0
  -22.0151    8.0014   23.5045 C   0  0  0  0  0  0  0  0  0  0  0  0
  -22.0483    9.3178   23.9020 C   0  0  0  0  0  0  0  0  0  0  0  0
  -22.0368   10.3151   22.9501 C   0  0  0  0  0  0  0  0  0  0  0  0
  -21.9916    9.9628   21.6033 C   0  0  0  0  0  0  0  0  0  0  0  0
  -21.8877    7.6855   19.2699 H   0  0  0  0  0  0  0  0  0  0  0  0
  -21.9912   12.1783   20.3334 C   0  0  0  0  0  0  0  0  0  0  0  0
  -20.7343   14.1379   19.6806 N   0  0  0  0  0  0  0  0  0  0  0  0
  -20.7692   12.6965   19.5901 C   0  0  0  0  0  0  0  0  0  0  0  0
  -21.6493   14.5231   19.3916 H   0  0  0  0  0  0  0  0  0  0  0  0
  -19.9325   14.4741   19.0702 H   0  0  0  0  0  0  0  0  0  0  0  0
  -20.4699   14.3848   20.6679 H   0  0  0  0  0  0  0  0  0  0  0  0
  -20.9212    9.6592   26.0059 C   0  0  0  0  0  0  0  0  0  0  0  0
  -20.6666   10.9742   26.5957 C   0  0  0  0  0  0  0  0  0  0  0  0
  -21.0140   11.0567   27.8491 O   0  0  0  0  0  0  0  0  0  0  0  0
  -20.1205   12.1229   26.0431 N   0  0  0  0  0  0  0  0  0  0  0  0
  -19.6000   12.3107   24.7067 C   0  0  0  0  0  0  0  0  0  0  0  0
  -18.4018   13.2728   24.7421 C   0  0  0  0  0  0  0  0  0  0  0  0
  -18.8799   14.5440   25.2526 N   0  0  0  0  0  0  0  0  0  0  0  0
  -20.1280   14.5224   25.9891 C   0  0  0  0  0  0  0  0  0  0  0  0
  -20.0434   13.3230   26.9080 C   0  0  0  0  0  0  0  0  0  0  0  0
  -18.1171   15.7141   25.0138 C   0  0  0  0  0  0  0  0  0  0  0  0
  -17.2174   15.6865   23.9637 C   0  0  0  0  0  0  0  0  0  0  0  0
  -16.4316   16.8099   23.6716 C   0  0  0  0  0  0  0  0  0  0  0  0
  -16.5405   17.9640   24.4256 C   0  0  0  0  0  0  0  0  0  0  0  0
  -17.4394   17.9884   25.4732 C   0  0  0  0  0  0  0  0  0  0  0  0
  -18.2218   16.8658   25.7616 C   0  0  0  0  0  0  0  0  0  0  0  0
  -15.7235   19.1283   24.1206 C   0  0  0  0  0  0  0  0  0  0  0  0
  -15.0781   20.0659   23.8863 N   0  0  0  0  0  0  0  0  0  0  0  0
 13 14  1  0
 14 12  1  0
 12  2  1  0
  2  3  2  0
  3  4  1  0
  4  5  1  0
  5  6  2  0
  6  7  1  0
  7  8  2  0
  8  1  1  0
  1 18  1  0
 18 19  1  0
 19 20  2  0
 19 21  1  0
 21 22  1  0
 22 23  1  0
 23 24  1  0
 24 25  1  0
 25 26  1  0
 24 27  1  0
 27 28  2  0
 28 29  1  0
 29 30  2  0
 30 31  1  0
 31 32  2  0
 30 33  1  0
 33 34  3  0
  8  9  1  0
  9 10  2  0
 10  2  1  0
 10  5  1  0
 26 21  1  0
 32 27  1  0
 13 15  1  0
 13 16  1  0
 13 17  1  0
  4 11  1  0
M  CHG 1  13   1
M  END
> <minimizedAffinity>
-6.77569

> <CNNscore>
0.2224736810

> <CNNaffinity>
5.8153257370

> <CNN_VS>
1.2937569618

> <CNNaffinity_variance>
0.1394738406

$$$$



 34 37  0  0  0  0  0  0  0  0999 V2000
  -23.3401    8.0630   28.0326 O   0  0  0  0  0  0  0  0  0  0  0  0
  -26.8267   11.6193   27.9634 C   0  0  0  0  0  0  0  0  0  0  0  0
  -27.5375   12.0765   26.8494 C   0  0  0  0  0  0  0  0  0  0  0  0
  -27.1073   11.3733   25.7684 N   0  0  0  0  0  0  0  0  0  0  0  0
  -26.1679   10.5118   26.1814 C   0  0  0  0  0  0  0  0  0  0  0  0
  -25.4355    9.5817   25.4425 C   0  0  0  0  0  0  0  0  0  0  0  0
  -24.5143    8.7970   26.0989 C   0  0  0  0  0  0  0  0  0  0  0  0
  -24.2977    8.9041   27.4530 C   0  0  0  0  0  0  0  0  0  0  0  0
  -25.0196    9.8222   28.1857 C   0  0  0  0  0  0  0  0  0  0  0  0
  -25.9547   10.6221   27.5331 C   0  0  0  0  0  0  0  0  0  0  0  0
  -27.4942   11.5349   24.8058 H   0  0  0  0  0  0  0  0  0  0  0  0
  -26.9614   12.0970   29.3586 C   0  0  0  0  0  0  0  0  0  0  0  0
  -27.5080   14.3846   29.9189 N   0  0  0  0  0  0  0  0  0  0  0  0
  -26.4318   13.5160   29.5013 C   0  0  0  0  0  0  0  0  0  0  0  0
  -28.3188   14.2544   29.2907 H   0  0  0  0  0  0  0  0  0  0  0  0
  -27.1337   15.3788   29.9108 H   0  0  0  0  0  0  0  0  0  0  0  0
  -27.7189   14.1628   30.9249 H   0  0  0  0  0  0  0  0  0  0  0  0
  -22.0902    8.5570   28.3585 C   0  0  0  0  0  0  0  0  0  0  0  0
  -21.2653    8.9021   27.1998 C   0  0  0  0  0  0  0  0  0  0  0  0
  -21.0668    7.9020   26.3880 O   0  0  0  0  0  0  0  0  0  0  0  0
  -20.6765   10.1032   26.8343 N   0  0  0  0  0  0  0  0  0  0  0  0
  -20.7674   11.3824   27.5033 C   0  0  0  0  0  0  0  0  0  0  0  0
  -20.7701   12.5166   26.4659 C   0  0  0  0  0  0  0  0  0  0  0  0
  -19.5161   12.4443   25.7396 N   0  0  0  0  0  0  0  0  0  0  0  0
  -18.8017   11.1846   25.7970 C   0  0  0  0  0  0  0  0  0  0  0  0
  -19.8482   10.1083   25.6063 C   0  0  0  0  0  0  0  0  0  0  0  0
  -19.0668   13.5820   25.0241 C   0  0  0  0  0  0  0  0  0  0  0  0
  -19.5126   14.8205   25.4490 C   0  0  0  0  0  0  0  0  0  0  0  0
  -19.1063   15.9873   24.7869 C   0  0  0  0  0  0  0  0  0  0  0  0
  -18.2546   15.9227   23.6995 C   0  0  0  0  0  0  0  0  0  0  0  0
  -17.8114   14.6851   23.2778 C   0  0  0  0  0  0  0  0  0  0  0  0
  -18.2187   13.5231   23.9407 C   0  0  0  0  0  0  0  0  0  0  0  0
  -17.8348   17.1352   23.0139 C   0  0  0  0  0  0  0  0  0  0  0  0
  -17.4863   18.0993   22.4667 N   0  0  0  0  0  0  0  0  0  0  0  0
 13 14  1  0
 14 12  1  0
 12  2  1  0
  2  3  2  0
  3  4  1  0
  4  5  1  0
  5  6  2  0
  6  7  1  0
  7  8  2  0
  8  1  1  0
  1 18  1  0
 18 19  1  0
 19 20  2  0
 19 21  1  0
 21 22  1  0
 22 23  1  0
 23 24  1  0
 24 25  1  0
 25 26  1  0
 24 27  1  0
 27 28  2  0
 28 29  1  0
 29 30  2  0
 30 31  1  0
 31 32  2  0
 30 33  1  0
 33 34  3  0
  8  9  1  0
  9 10  2  0
 10  2  1  0
 10  5  1  0
 26 21  1  0
 32 27  1  0
 13 15  1  0
 13 16  1  0
 13 17  1  0
  4 11  1  0
M  CHG 1  13   1
M  END
> <minimizedAffinity>
-9.12977

> <CNNscore>
0.2026916146

> <CNNaffinity>
5.4884729385

> <CNN_VS>
1.1124674082

> <CNNaffinity_variance>
0.4576732516

$$$$



 34 37  0  0  0  0  0  0  0  0999 V2000
  -23.7255    7.9700   27.4148 O   0  0  0  0  0  0  0  0  0  0  0  0
  -26.5389   11.0233   24.6634 C   0  0  0  0  0  0  0  0  0  0  0  0
  -27.0792   12.2510   25.0585 C   0  0  0  0  0  0  0  0  0  0  0  0
  -26.6998   12.4738   26.3448 N   0  0  0  0  0  0  0  0  0  0  0  0
  -25.9544   11.4342   26.7432 C   0  0  0  0  0  0  0  0  0  0  0  0
  -25.3409   11.2074   27.9759 C   0  0  0  0  0  0  0  0  0  0  0  0
  -24.6166   10.0496   28.1484 C   0  0  0  0  0  0  0  0  0  0  0  0
  -24.4820    9.1171   27.1462 C   0  0  0  0  0  0  0  0  0  0  0  0
  -25.0871    9.3382   25.9271 C   0  0  0  0  0  0  0  0  0  0  0  0
  -25.8229   10.5060   25.7403 C   0  0  0  0  0  0  0  0  0  0  0  0
  -26.9827   13.3381   26.8697 H   0  0  0  0  0  0  0  0  0  0  0  0
  -26.6899   10.3720   23.3420 C   0  0  0  0  0  0  0  0  0  0  0  0
  -28.8825   10.7113   22.3813 N   0  0  0  0  0  0  0  0  0  0  0  0
  -28.0896    9.8003   23.1740 C   0  0  0  0  0  0  0  0  0  0  0  0
  -28.8163   11.6625   22.7810 H   0  0  0  0  0  0  0  0  0  0  0  0
  -29.8765   10.3365   22.3678 H   0  0  0  0  0  0  0  0  0  0  0  0
  -28.5362   10.6493   21.3903 H   0  0  0  0  0  0  0  0  0  0  0  0
  -22.4080    8.0875   27.8181 C   0  0  0  0  0  0  0  0  0  0  0  0
  -21.4998    8.5382   26.7626 C   0  0  0  0  0  0  0  0  0  0  0  0
  -21.3575    7.6746   25.7969 O   0  0  0  0  0  0  0  0  0  0  0  0
  -20.7839    9.7183   26.6284 N   0  0  0  0  0  0  0  0  0  0  0  0
  -20.7862   10.8688   27.5050 C   0  0  0  0  0  0  0  0  0  0  0  0
  -20.6327   12.1562   26.6793 C   0  0  0  0  0  0  0  0  0  0  0  0
  -19.3578   12.0815   25.9907 N   0  0  0  0  0  0  0  0  0  0  0  0
  -18.7684   10.7647   25.8521 C   0  0  0  0  0  0  0  0  0  0  0  0
  -19.9010    9.8471   25.4460 C   0  0  0  0  0  0  0  0  0  0  0  0
  -18.7698   13.2725   25.4967 C   0  0  0  0  0  0  0  0  0  0  0  0
  -17.4151   13.2482   25.2190 C   0  0  0  0  0  0  0  0  0  0  0  0
  -16.7701   14.3913   24.7269 C   0  0  0  0  0  0  0  0  0  0  0  0
  -17.4738   15.5618   24.5104 C   0  0  0  0  0  0  0  0  0  0  0  0
  -18.8259   15.5829   24.7887 C   0  0  0  0  0  0  0  0  0  0  0  0
  -19.4661   14.4406   25.2794 C   0  0  0  0  0  0  0  0  0  0  0  0
  -16.8018   16.7468   24.0000 C   0  0  0  0  0  0  0  0  0  0  0  0
  -16.2589   17.6952   23.6047 N   0  0  0  0  0  0  0  0  0  0  0  0
 13 14  1  0
 14 12  1  0
 12  2  1  0
  2  3  2  0
  3  4  1  0
  4  5  1  0
  5  6  2  0
  6  7  1  0
  7  8  2  0
  8  1  1  0
  1 18  1  0
 18 19  1  0
 19 20  2  0
 19 21  1  0
 21 22  1  0
 22 23  1  0
 23 24  1  0
 24 25  1  0
 25 26  1  0
 24 27  1  0
 27 28  2  0
 28 29  1  0
 29 30  2  0
 30 31  1  0
 31 32  2  0
 30 33  1  0
 33 34  3  0
  8  9  1  0
  9 10  2  0
 10  2  1  0
 10  5  1  0
 26 21  1  0
 32 27  1  0
 13 15  1  0
 13 16  1  0
 13 17  1  0
  4 11  1  0
M  CHG 1  13   1
M  END
> <minimizedAffinity>
-9.19992

> <CNNscore>
0.1335699558

> <CNNaffinity>
5.3081164360

> <CNN_VS>
0.7090048790

> <CNNaffinity_variance>
0.6407519579

$$$$



 34 37  0  0  0  0  0  0  0  0999 V2000
  -21.4537    8.9465   26.5645 O   0  0  0  0  0  0  0  0  0  0  0  0
  -25.7061   11.1667   27.9046 C   0  0  0  0  0  0  0  0  0  0  0  0
  -25.8721   12.5015   28.2869 C   0  0  0  0  0  0  0  0  0  0  0  0
  -24.6534   13.1013   28.2302 N   0  0  0  0  0  0  0  0  0  0  0  0
  -23.7594   12.1870   27.8306 C   0  0  0  0  0  0  0  0  0  0  0  0
  -22.3862   12.3248   27.6240 C   0  0  0  0  0  0  0  0  0  0  0  0
  -21.6691   11.2265   27.2064 C   0  0  0  0  0  0  0  0  0  0  0  0
  -22.2648   10.0059   26.9888 C   0  0  0  0  0  0  0  0  0  0  0  0
  -23.6214    9.8664   27.1921 C   0  0  0  0  0  0  0  0  0  0  0  0
  -24.3579   10.9705   27.6148 C   0  0  0  0  0  0  0  0  0  0  0  0
  -24.5165   14.1136   28.4732 H   0  0  0  0  0  0  0  0  0  0  0  0
  -26.7613   10.1313   27.8179 C   0  0  0  0  0  0  0  0  0  0  0  0
  -28.4196    9.5909   29.4922 N   0  0  0  0  0  0  0  0  0  0  0  0
  -28.0305   10.5876   28.5216 C   0  0  0  0  0  0  0  0  0  0  0  0
  -28.4505    8.6623   29.0386 H   0  0  0  0  0  0  0  0  0  0  0  0
  -29.3582    9.8875   29.8918 H   0  0  0  0  0  0  0  0  0  0  0  0
  -27.7358    9.6441   30.2893 H   0  0  0  0  0  0  0  0  0  0  0  0
  -21.0803    8.8484   25.2366 C   0  0  0  0  0  0  0  0  0  0  0  0
  -19.8679    9.5968   24.9018 C   0  0  0  0  0  0  0  0  0  0  0  0
  -18.8769    9.3708   25.7174 O   0  0  0  0  0  0  0  0  0  0  0  0
  -19.6110   10.4881   23.8709 N   0  0  0  0  0  0  0  0  0  0  0  0
  -20.4915   10.8868   22.7949 C   0  0  0  0  0  0  0  0  0  0  0  0
  -19.6777   11.1206   21.5120 C   0  0  0  0  0  0  0  0  0  0  0  0
  -18.7374   12.1918   21.7830 N   0  0  0  0  0  0  0  0  0  0  0  0
  -18.4529   12.4721   23.1762 C   0  0  0  0  0  0  0  0  0  0  0  0
  -18.2735   11.1238   23.8394 C   0  0  0  0  0  0  0  0  0  0  0  0
  -18.1555   12.8902   20.6959 C   0  0  0  0  0  0  0  0  0  0  0  0
  -18.0697   14.2672   20.7943 C   0  0  0  0  0  0  0  0  0  0  0  0
  -17.5045   15.0198   19.7555 C   0  0  0  0  0  0  0  0  0  0  0  0
  -17.0233   14.4019   18.6159 C   0  0  0  0  0  0  0  0  0  0  0  0
  -17.1105   13.0273   18.5207 C   0  0  0  0  0  0  0  0  0  0  0  0
  -17.6748   12.2796   19.5589 C   0  0  0  0  0  0  0  0  0  0  0  0
  -16.4376   15.1854   17.5391 C   0  0  0  0  0  0  0  0  0  0  0  0
  -15.9570   15.8078   16.6835 N   0  0  0  0  0  0  0  0  0  0  0  0
 13 14  1  0
 14 12  1  0
 12  2  1  0
  2  3  2  0
  3  4  1  0
  4  5  1  0
  5  6  2  0
  6  7  1  0
  7  8  2  0
  8  1  1  0
  1 18  1  0
 18 19  1  0
 19 20  2  0
 19 21  1  0
 21 22  1  0
 22 23  1  0
 23 24  1  0
 24 25  1  0
 25 26  1  0
 24 27  1  0
 27 28  2  0
 28 29  1  0
 29 30  2  0
 30 31  1  0
 31 32  2  0
 30 33  1  0
 33 34  3  0
  8  9  1  0
  9 10  2  0
 10  2  1  0
 10  5  1  0
 26 21  1  0
 32 27  1  0
 13 15  1  0
 13 16  1  0
 13 17  1  0
  4 11  1  0
M  CHG 1  13   1
M  END
> <minimizedAffinity>
-9.34122

> <CNNscore>
0.1265033931

> <CNNaffinity>
5.3609032631

> <CNN_VS>
0.6781724691

> <CNNaffinity_variance>
0.1768415272

$$$$



 34 37  0  0  0  0  0  0  0  0999 V2000
  -24.8992   12.0290   27.6025 O   0  0  0  0  0  0  0  0  0  0  0  0
  -24.4024    7.1489   26.7383 C   0  0  0  0  0  0  0  0  0  0  0  0
  -25.4205    6.2449   26.4198 C   0  0  0  0  0  0  0  0  0  0  0  0
  -26.5905    6.9363   26.3858 N   0  0  0  0  0  0  0  0  0  0  0  0
  -26.3230    8.2180   26.6701 C   0  0  0  0  0  0  0  0  0  0  0  0
  -27.1940    9.3051   26.7542 C   0  0  0  0  0  0  0  0  0  0  0  0
  -26.6760   10.5421   27.0650 C   0  0  0  0  0  0  0  0  0  0  0  0
  -25.3332   10.7343   27.2931 C   0  0  0  0  0  0  0  0  0  0  0  0
  -24.4700    9.6622   27.2108 C   0  0  0  0  0  0  0  0  0  0  0  0
  -24.9821    8.4054   26.8972 C   0  0  0  0  0  0  0  0  0  0  0  0
  -27.5072    6.4740   26.1660 H   0  0  0  0  0  0  0  0  0  0  0  0
  -22.9607    6.8450   26.8860 C   0  0  0  0  0  0  0  0  0  0  0  0
  -22.6940    6.6600   24.4901 N   0  0  0  0  0  0  0  0  0  0  0  0
  -22.1780    7.3158   25.6693 C   0  0  0  0  0  0  0  0  0  0  0  0
  -22.7286    5.6393   24.6512 H   0  0  0  0  0  0  0  0  0  0  0  0
  -22.0652    6.9294   23.6773 H   0  0  0  0  0  0  0  0  0  0  0  0
  -23.6341    7.0823   24.2812 H   0  0  0  0  0  0  0  0  0  0  0  0
  -23.5619   12.2684   27.8606 C   0  0  0  0  0  0  0  0  0  0  0  0
  -22.9053   13.1159   26.8643 C   0  0  0  0  0  0  0  0  0  0  0  0
  -23.6741   14.0594   26.3981 O   0  0  0  0  0  0  0  0  0  0  0  0
  -21.6176   13.0768   26.3512 N   0  0  0  0  0  0  0  0  0  0  0  0
  -20.5379   12.1858   26.7151 C   0  0  0  0  0  0  0  0  0  0  0  0
  -19.1956   12.9305   26.6362 C   0  0  0  0  0  0  0  0  0  0  0  0
  -19.0178   13.3618   25.2623 N   0  0  0  0  0  0  0  0  0  0  0  0
  -20.2089   13.4203   24.4386 C   0  0  0  0  0  0  0  0  0  0  0  0
  -21.2744   14.0625   25.3000 C   0  0  0  0  0  0  0  0  0  0  0  0
  -17.7189   13.7000   24.8081 C   0  0  0  0  0  0  0  0  0  0  0  0
  -17.6235   14.5654   23.7334 C   0  0  0  0  0  0  0  0  0  0  0  0
  -16.3692   14.9423   23.2338 C   0  0  0  0  0  0  0  0  0  0  0  0
  -15.2065   14.4575   23.8041 C   0  0  0  0  0  0  0  0  0  0  0  0
  -15.3050   13.5937   24.8766 C   0  0  0  0  0  0  0  0  0  0  0  0
  -16.5580   13.2200   25.3725 C   0  0  0  0  0  0  0  0  0  0  0  0
  -13.9061   14.8499   23.2834 C   0  0  0  0  0  0  0  0  0  0  0  0
  -12.8735   15.1722   22.8586 N   0  0  0  0  0  0  0  0  0  0  0  0
 13 14  1  0
 14 12  1  0
 12  2  1  0
  2  3  2  0
  3  4  1  0
  4  5  1  0
  5  6  2  0
  6  7  1  0
  7  8  2  0
  8  1  1  0
  1 18  1  0
 18 19  1  0
 19 20  2  0
 19 21  1  0
 21 22  1  0
 22 23  1  0
 23 24  1  0
 24 25  1  0
 25 26  1  0
 24 27  1  0
 27 28  2  0
 28 29  1  0
 29 30  2  0
 30 31  1  0
 31 32  2  0
 30 33  1  0
 33 34  3  0
  8  9  1  0
  9 10  2  0
 10  2  1  0
 10  5  1  0
 26 21  1  0
 32 27  1  0
 13 15  1  0
 13 16  1  0
 13 17  1  0
  4 11  1  0
M  CHG 1  13   1
M  END
> <minimizedAffinity>
-9.20794

> <CNNscore>
0.1020646393

> <CNNaffinity>
5.2352695465

> <CNN_VS>
0.5343359113

> <CNNaffinity_variance>
0.1855258495

$$$$
