


 46 53  0  0  0  0  0  0  0  0999 V2000
  -20.8502   13.3234   26.3487 C   0  0  0  0  0  0  0  0  0  0  0  0
  -21.0092   13.9948   27.6924 C   0  0  0  0  0  0  0  0  0  0  0  0
  -21.5527   14.0797   25.4337 O   0  0  0  0  0  0  0  0  0  0  0  0
  -20.6868   14.8866   24.7331 C   0  0  0  0  0  0  0  0  0  0  0  0
  -20.9092   14.6544   23.3754 O   0  0  0  0  0  0  0  0  0  0  0  0
  -21.0637   16.3071   25.0038 C   0  0  0  0  0  0  0  0  0  0  0  0
  -21.8506   16.9406   23.8531 C   0  0  0  0  0  0  0  0  0  0  0  0
  -21.6532   18.4265   24.1054 C   0  0  0  0  0  0  0  0  0  0  0  0
  -20.5097   18.5578   25.0878 C   0  0  0  0  0  0  0  0  0  0  0  0
  -19.9406   17.2228   25.0670 N   0  0  0  0  0  0  0  0  0  0  0  0
  -18.5853   16.7911   25.0981 C   0  0  0  0  0  0  0  0  0  0  0  0
  -17.6567   17.5504   25.4817 O   0  0  0  0  0  0  0  0  0  0  0  0
  -18.2674   15.4068   24.6650 C   0  0  0  0  0  0  0  0  0  0  0  0
  -19.3346   14.5700   25.1239 N   0  0  0  0  0  0  0  0  0  0  0  0
  -19.4219   13.3946   25.9431 C   0  0  0  0  0  0  0  0  0  0  0  0
  -18.4671   12.6261   26.2256 O   0  0  0  0  0  0  0  0  0  0  0  0
  -21.1057   13.6967   23.2103 H   0  0  0  0  0  0  0  0  0  0  0  0
  -21.1883   11.0693   27.4155 C   0  0  0  0  0  0  0  0  0  0  0  0
  -20.5358   11.3641   28.4497 O   0  0  0  0  0  0  0  0  0  0  0  0
  -21.3786   11.9799   26.3536 N   0  0  0  0  0  0  0  0  0  0  0  0
  -21.9477   11.6184   25.5308 H   0  0  0  0  0  0  0  0  0  0  0  0
  -25.2399    9.6919   27.0765 C   0  0  0  0  0  0  0  0  0  0  0  0
  -24.0947    8.8782   27.3699 N   0  0  0  0  0  0  0  0  0  0  0  0
  -23.0540    9.5368   28.0709 C   0  0  0  0  0  0  0  0  0  0  0  0
  -21.7680    9.6960   27.3446 C   0  0  0  0  0  0  0  0  0  0  0  0
  -21.7813    9.1830   25.9183 C   0  0  0  0  0  0  0  0  0  0  0  0
  -22.3200    7.7902   26.0290 C   0  0  0  0  0  0  0  0  0  0  0  0
  -23.7720    7.9115   26.3987 C   0  0  0  0  0  0  0  0  0  0  0  0
  -24.3350    6.5204   26.6692 C   0  0  0  0  0  0  0  0  0  0  0  0
  -24.2009    5.7179   25.4283 C   0  0  0  0  0  0  0  0  0  0  0  0
  -24.8830    4.6816   24.8257 C   0  0  0  0  0  0  0  0  0  0  0  0
  -24.2456    4.3682   23.6573 N   0  0  0  0  0  0  0  0  0  0  0  0
  -23.1783    5.1713   23.4943 C   0  0  0  0  0  0  0  0  0  0  0  0
  -22.1839    5.3357   22.5540 C   0  0  0  0  0  0  0  0  0  0  0  0
  -21.2032    6.3160   22.7319 C   0  0  0  0  0  0  0  0  0  0  0  0
  -21.2118    7.1416   23.8573 C   0  0  0  0  0  0  0  0  0  0  0  0
  -22.2141    6.9781   24.8082 C   0  0  0  0  0  0  0  0  0  0  0  0
  -23.1524    6.0021   24.5866 C   0  0  0  0  0  0  0  0  0  0  0  0
  -24.5125    3.6251   22.9654 H   0  0  0  0  0  0  0  0  0  0  0  0
  -18.0411   15.3297   23.1724 C   0  0  0  0  0  0  0  0  0  0  0  0
  -16.6620   15.8834   22.9381 C   0  0  0  0  0  0  0  0  0  0  0  0
  -15.6258   15.1902   23.5455 C   0  0  0  0  0  0  0  0  0  0  0  0
  -14.3174   15.6175   23.3922 C   0  0  0  0  0  0  0  0  0  0  0  0
  -14.0759   16.7480   22.6207 C   0  0  0  0  0  0  0  0  0  0  0  0
  -15.1340   17.4178   22.0275 C   0  0  0  0  0  0  0  0  0  0  0  0
  -16.4459   17.0056   22.1698 C   0  0  0  0  0  0  0  0  0  0  0  0
 22 23  1  0
 23 24  1  0
 24 25  1  0
 25 26  1  0
 26 27  1  0
 27 28  1  0
 28 29  1  0
 29 30  1  0
 30 31  2  0
 31 32  1  0
 32 33  1  0
 33 34  2  0
 34 35  1  0
 35 36  2  0
 36 37  1  0
 37 38  2  0
 25 18  1  0
 18 19  2  0
 18 20  1  0
  1 20  1  0
  1  2  1  0
  1  3  1  0
  3  4  1  0
  4  5  1  0
  4  6  1  0
  6  7  1  0
  7  8  1  0
  8  9  1  0
  9 10  1  0
 10 11  1  0
 11 12  2  0
 11 13  1  0
 13 40  1  0
 40 41  1  0
 41 42  2  0
 42 43  1  0
 43 44  2  0
 44 45  1  0
 45 46  2  0
 13 14  1  0
 14 15  1  0
 15 16  2  0
 28 23  1  0
 37 27  1  0
 38 30  1  0
 38 33  1  0
 15  1  1  0
 14  4  1  0
 10  6  1  0
 46 41  1  0
 32 39  1  0
 20 21  1  0
  5 17  1  0
M  END
> <minimizedAffinity>
-13.09955

> <CNNscore>
0.5541043878

> <CNNaffinity>
7.2402572632

> <CNN_VS>
4.0118584633

> <CNNaffinity_variance>
0.0130775217

$$$$



 46 53  0  0  0  0  0  0  0  0999 V2000
  -19.3495   11.9832   23.6240 C   0  0  0  0  0  0  0  0  0  0  0  0
  -18.2882   11.7699   24.6775 C   0  0  0  0  0  0  0  0  0  0  0  0
  -20.2942   12.8284   24.1679 O   0  0  0  0  0  0  0  0  0  0  0  0
  -20.0906   14.1101   23.7122 C   0  0  0  0  0  0  0  0  0  0  0  0
  -21.2976   14.5555   23.1721 O   0  0  0  0  0  0  0  0  0  0  0  0
  -19.7922   14.9745   24.8941 C   0  0  0  0  0  0  0  0  0  0  0  0
  -20.9941   15.8169   25.3304 C   0  0  0  0  0  0  0  0  0  0  0  0
  -20.3366   16.9284   26.1320 C   0  0  0  0  0  0  0  0  0  0  0  0
  -18.8602   16.8946   25.8019 C   0  0  0  0  0  0  0  0  0  0  0  0
  -18.8324   16.0310   24.6358 N   0  0  0  0  0  0  0  0  0  0  0  0
  -18.0660   16.1108   23.4398 C   0  0  0  0  0  0  0  0  0  0  0  0
  -17.0244   16.8149   23.3660 O   0  0  0  0  0  0  0  0  0  0  0  0
  -18.5142   15.3398   22.2525 C   0  0  0  0  0  0  0  0  0  0  0  0
  -19.0306   14.0943   22.7337 N   0  0  0  0  0  0  0  0  0  0  0  0
  -18.7467   12.7110   22.4766 C   0  0  0  0  0  0  0  0  0  0  0  0
  -18.1203   12.2645   21.4815 O   0  0  0  0  0  0  0  0  0  0  0  0
  -21.7663   13.8179   22.7038 H   0  0  0  0  0  0  0  0  0  0  0  0
  -19.4909    9.8838   22.2435 C   0  0  0  0  0  0  0  0  0  0  0  0
  -18.4418   10.1348   21.5964 O   0  0  0  0  0  0  0  0  0  0  0  0
  -19.9878   10.7447   23.2460 N   0  0  0  0  0  0  0  0  0  0  0  0
  -20.8830   10.4281   23.7253 H   0  0  0  0  0  0  0  0  0  0  0  0
  -21.9051    8.7714   18.8729 C   0  0  0  0  0  0  0  0  0  0  0  0
  -21.7743    8.0328   20.0965 N   0  0  0  0  0  0  0  0  0  0  0  0
  -21.5245    8.8192   21.2486 C   0  0  0  0  0  0  0  0  0  0  0  0
  -20.2099    8.6192   21.9108 C   0  0  0  0  0  0  0  0  0  0  0  0
  -19.2919    7.6391   21.2076 C   0  0  0  0  0  0  0  0  0  0  0  0
  -20.1345    6.4173   21.0089 C   0  0  0  0  0  0  0  0  0  0  0  0
  -21.1727    6.7654   19.9790 C   0  0  0  0  0  0  0  0  0  0  0  0
  -22.1508    5.6031   19.8452 C   0  0  0  0  0  0  0  0  0  0  0  0
  -21.3908    4.4077   19.4038 C   0  0  0  0  0  0  0  0  0  0  0  0
  -21.6454    3.2776   18.6552 C   0  0  0  0  0  0  0  0  0  0  0  0
  -20.5031    2.5277   18.6051 N   0  0  0  0  0  0  0  0  0  0  0  0
  -19.5270    3.1427   19.2977 C   0  0  0  0  0  0  0  0  0  0  0  0
  -18.2059    2.8931   19.6017 C   0  0  0  0  0  0  0  0  0  0  0  0
  -17.4802    3.7998   20.3800 C   0  0  0  0  0  0  0  0  0  0  0  0
  -18.0752    4.9673   20.8610 C   0  0  0  0  0  0  0  0  0  0  0  0
  -19.4084    5.2219   20.5560 C   0  0  0  0  0  0  0  0  0  0  0  0
  -20.0760    4.3008   19.7891 C   0  0  0  0  0  0  0  0  0  0  0  0
  -20.3645    1.6097   18.1147 H   0  0  0  0  0  0  0  0  0  0  0  0
  -19.5064   16.1231   21.4235 C   0  0  0  0  0  0  0  0  0  0  0  0
  -20.0341   15.1583   20.3968 C   0  0  0  0  0  0  0  0  0  0  0  0
  -21.2044   14.4978   20.7396 C   0  0  0  0  0  0  0  0  0  0  0  0
  -21.7735   13.5884   19.8638 C   0  0  0  0  0  0  0  0  0  0  0  0
  -21.1451   13.3598   18.6455 C   0  0  0  0  0  0  0  0  0  0  0  0
  -19.9768   14.0364   18.3337 C   0  0  0  0  0  0  0  0  0  0  0  0
  -19.3947   14.9473   19.1956 C   0  0  0  0  0  0  0  0  0  0  0  0
 22 23  1  0
 23 24  1  0
 24 25  1  0
 25 26  1  0
 26 27  1  0
 27 28  1  0
 28 29  1  0
 29 30  1  0
 30 31  2  0
 31 32  1  0
 32 33  1  0
 33 34  2  0
 34 35  1  0
 35 36  2  0
 36 37  1  0
 37 38  2  0
 25 18  1  0
 18 19  2  0
 18 20  1  0
  1 20  1  0
  1  2  1  0
  1  3  1  0
  3  4  1  0
  4  5  1  0
  4  6  1  0
  6  7  1  0
  7  8  1  0
  8  9  1  0
  9 10  1  0
 10 11  1  0
 11 12  2  0
 11 13  1  0
 13 40  1  0
 40 41  1  0
 41 42  2  0
 42 43  1  0
 43 44  2  0
 44 45  1  0
 45 46  2  0
 13 14  1  0
 14 15  1  0
 15 16  2  0
 28 23  1  0
 37 27  1  0
 38 30  1  0
 38 33  1  0
 15  1  1  0
 14  4  1  0
 10  6  1  0
 46 41  1  0
 32 39  1  0
 20 21  1  0
  5 17  1  0
M  END
> <minimizedAffinity>
-3.41425

> <CNNscore>
0.4996331334

> <CNNaffinity>
7.3336548805

> <CNN_VS>
3.6641368866

> <CNNaffinity_variance>
0.5855373144

$$$$



 46 53  0  0  0  0  0  0  0  0999 V2000
  -18.4759   11.8843   23.4541 C   0  0  0  0  0  0  0  0  0  0  0  0
  -17.5472   10.9086   24.1376 C   0  0  0  0  0  0  0  0  0  0  0  0
  -19.7569   11.3955   23.6046 O   0  0  0  0  0  0  0  0  0  0  0  0
  -20.3919   12.0592   24.6284 C   0  0  0  0  0  0  0  0  0  0  0  0
  -21.5943   12.5525   24.1209 O   0  0  0  0  0  0  0  0  0  0  0  0
  -20.7373   11.0554   25.6802 C   0  0  0  0  0  0  0  0  0  0  0  0
  -22.2134   10.6493   25.6493 C   0  0  0  0  0  0  0  0  0  0  0  0
  -22.4244   10.0896   27.0466 C   0  0  0  0  0  0  0  0  0  0  0  0
  -21.2468   10.5397   27.8834 C   0  0  0  0  0  0  0  0  0  0  0  0
  -20.6488   11.5570   27.0384 N   0  0  0  0  0  0  0  0  0  0  0  0
  -20.0695   12.8141   27.3675 C   0  0  0  0  0  0  0  0  0  0  0  0
  -19.7010   13.0871   28.5404 O   0  0  0  0  0  0  0  0  0  0  0  0
  -19.8989   13.8243   26.2926 C   0  0  0  0  0  0  0  0  0  0  0  0
  -19.5305   13.1134   25.1058 N   0  0  0  0  0  0  0  0  0  0  0  0
  -18.4326   13.1788   24.1836 C   0  0  0  0  0  0  0  0  0  0  0  0
  -17.6367   14.1448   24.0594 O   0  0  0  0  0  0  0  0  0  0  0  0
  -21.4813   12.8585   23.1847 H   0  0  0  0  0  0  0  0  0  0  0  0
  -18.9105   11.3476   21.0341 C   0  0  0  0  0  0  0  0  0  0  0  0
  -19.8823   10.5898   21.2866 O   0  0  0  0  0  0  0  0  0  0  0  0
  -18.1820   12.0094   22.0462 N   0  0  0  0  0  0  0  0  0  0  0  0
  -17.3808   12.6243   21.7124 H   0  0  0  0  0  0  0  0  0  0  0  0
  -21.2926   12.1608   17.5568 C   0  0  0  0  0  0  0  0  0  0  0  0
  -19.9092   11.7785   17.5604 N   0  0  0  0  0  0  0  0  0  0  0  0
  -19.5186   10.9484   18.6404 C   0  0  0  0  0  0  0  0  0  0  0  0
  -18.5437   11.5292   19.5990 C   0  0  0  0  0  0  0  0  0  0  0  0
  -18.1576   12.9668   19.3129 C   0  0  0  0  0  0  0  0  0  0  0  0
  -17.7577   12.9644   17.8699 C   0  0  0  0  0  0  0  0  0  0  0  0
  -19.0112   12.7452   17.0696 C   0  0  0  0  0  0  0  0  0  0  0  0
  -18.6416   12.5865   15.5987 C   0  0  0  0  0  0  0  0  0  0  0  0
  -17.9757   13.8349   15.1519 C   0  0  0  0  0  0  0  0  0  0  0  0
  -17.8598   14.5434   13.9742 C   0  0  0  0  0  0  0  0  0  0  0  0
  -17.0907   15.6490   14.2105 N   0  0  0  0  0  0  0  0  0  0  0  0
  -16.7118   15.6694   15.5016 C   0  0  0  0  0  0  0  0  0  0  0  0
  -15.9592   16.4933   16.3107 C   0  0  0  0  0  0  0  0  0  0  0  0
  -15.7770   16.1776   17.6603 C   0  0  0  0  0  0  0  0  0  0  0  0
  -16.3497   15.0298   18.2109 C   0  0  0  0  0  0  0  0  0  0  0  0
  -17.1097   14.1962   17.3968 C   0  0  0  0  0  0  0  0  0  0  0  0
  -17.2580   14.5507   16.0798 C   0  0  0  0  0  0  0  0  0  0  0  0
  -16.8142   16.3919   13.5221 H   0  0  0  0  0  0  0  0  0  0  0  0
  -21.1388   14.6729   26.1259 C   0  0  0  0  0  0  0  0  0  0  0  0
  -20.6528   16.0248   25.6793 C   0  0  0  0  0  0  0  0  0  0  0  0
  -19.5836   16.5443   26.3936 C   0  0  0  0  0  0  0  0  0  0  0  0
  -19.0602   17.7829   26.0624 C   0  0  0  0  0  0  0  0  0  0  0  0
  -19.6308   18.4820   25.0054 C   0  0  0  0  0  0  0  0  0  0  0  0
  -20.6984   17.9345   24.3121 C   0  0  0  0  0  0  0  0  0  0  0  0
  -21.2335   16.6998   24.6289 C   0  0  0  0  0  0  0  0  0  0  0  0
 22 23  1  0
 23 24  1  0
 24 25  1  0
 25 26  1  0
 26 27  1  0
 27 28  1  0
 28 29  1  0
 29 30  1  0
 30 31  2  0
 31 32  1  0
 32 33  1  0
 33 34  2  0
 34 35  1  0
 35 36  2  0
 36 37  1  0
 37 38  2  0
 25 18  1  0
 18 19  2  0
 18 20  1  0
  1 20  1  0
  1  2  1  0
  1  3  1  0
  3  4  1  0
  4  5  1  0
  4  6  1  0
  6  7  1  0
  7  8  1  0
  8  9  1  0
  9 10  1  0
 10 11  1  0
 11 12  2  0
 11 13  1  0
 13 40  1  0
 40 41  1  0
 41 42  2  0
 42 43  1  0
 43 44  2  0
 44 45  1  0
 45 46  2  0
 13 14  1  0
 14 15  1  0
 15 16  2  0
 28 23  1  0
 37 27  1  0
 38 30  1  0
 38 33  1  0
 15  1  1  0
 14  4  1  0
 10  6  1  0
 46 41  1  0
 32 39  1  0
 20 21  1  0
  5 17  1  0
M  END
> <minimizedAffinity>
-11.79961

> <CNNscore>
0.3971121013

> <CNNaffinity>
7.3065681458

> <CNN_VS>
2.9015266895

> <CNNaffinity_variance>
0.1279748976

$$$$



 46 53  0  0  0  0  0  0  0  0999 V2000
  -21.5723   10.1138   21.3030 C   0  0  0  0  0  0  0  0  0  0  0  0
  -22.7399    9.4307   21.9751 C   0  0  0  0  0  0  0  0  0  0  0  0
  -20.5386    9.2013   21.2640 O   0  0  0  0  0  0  0  0  0  0  0  0
  -20.4655    8.6328   20.0137 C   0  0  0  0  0  0  0  0  0  0  0  0
  -19.1562    8.7953   19.5594 O   0  0  0  0  0  0  0  0  0  0  0  0
  -20.6999    7.1646   20.1636 C   0  0  0  0  0  0  0  0  0  0  0  0
  -19.4056    6.3488   20.1014 C   0  0  0  0  0  0  0  0  0  0  0  0
  -19.9145    4.9607   19.7486 C   0  0  0  0  0  0  0  0  0  0  0  0
  -21.3390    5.1241   19.2648 C   0  0  0  0  0  0  0  0  0  0  0  0
  -21.4253    6.5588   19.0632 N   0  0  0  0  0  0  0  0  0  0  0  0
  -22.0604    7.3156   18.0394 C   0  0  0  0  0  0  0  0  0  0  0  0
  -22.9459    6.8144   17.2973 O   0  0  0  0  0  0  0  0  0  0  0  0
  -21.6618    8.7332   17.8487 C   0  0  0  0  0  0  0  0  0  0  0  0
  -21.4240    9.2792   19.1506 N   0  0  0  0  0  0  0  0  0  0  0  0
  -21.9329   10.3996   19.8894 C   0  0  0  0  0  0  0  0  0  0  0  0
  -22.5439   11.3837   19.3993 O   0  0  0  0  0  0  0  0  0  0  0  0
  -18.7922    9.6726   19.8434 H   0  0  0  0  0  0  0  0  0  0  0  0
  -21.8822   12.4828   22.0936 C   0  0  0  0  0  0  0  0  0  0  0  0
  -22.9872   12.6252   21.5095 O   0  0  0  0  0  0  0  0  0  0  0  0
  -21.1413   11.2827   22.0324 N   0  0  0  0  0  0  0  0  0  0  0  0
  -20.2211   11.2796   22.5660 H   0  0  0  0  0  0  0  0  0  0  0  0
  -20.6801   12.8760   26.1957 C   0  0  0  0  0  0  0  0  0  0  0  0
  -20.8797   13.9534   25.2688 N   0  0  0  0  0  0  0  0  0  0  0  0
  -21.8575   13.7138   24.2713 C   0  0  0  0  0  0  0  0  0  0  0  0
  -21.3676   13.6483   22.8705 C   0  0  0  0  0  0  0  0  0  0  0  0
  -19.8652   13.7826   22.7207 C   0  0  0  0  0  0  0  0  0  0  0  0
  -19.5235   15.0194   23.4925 C   0  0  0  0  0  0  0  0  0  0  0  0
  -19.7292   14.6978   24.9465 C   0  0  0  0  0  0  0  0  0  0  0  0
  -19.5374   15.9672   25.7693 C   0  0  0  0  0  0  0  0  0  0  0  0
  -18.1511   16.4514   25.5562 C   0  0  0  0  0  0  0  0  0  0  0  0
  -17.2086   17.1464   26.2849 C   0  0  0  0  0  0  0  0  0  0  0  0
  -16.0874   17.2879   25.5150 N   0  0  0  0  0  0  0  0  0  0  0  0
  -16.2837   16.7053   24.3180 C   0  0  0  0  0  0  0  0  0  0  0  0
  -15.5549   16.5229   23.1623 C   0  0  0  0  0  0  0  0  0  0  0  0
  -16.1140   15.8381   22.0793 C   0  0  0  0  0  0  0  0  0  0  0  0
  -17.4121   15.3293   22.1468 C   0  0  0  0  0  0  0  0  0  0  0  0
  -18.1502   15.5119   23.3118 C   0  0  0  0  0  0  0  0  0  0  0  0
  -17.5558   16.1906   24.3454 C   0  0  0  0  0  0  0  0  0  0  0  0
  -15.1912   17.7682   25.7766 H   0  0  0  0  0  0  0  0  0  0  0  0
  -20.4768    8.8569   16.9182 C   0  0  0  0  0  0  0  0  0  0  0  0
  -20.1173   10.3177   16.9048 C   0  0  0  0  0  0  0  0  0  0  0  0
  -21.1742   11.1941   16.7090 C   0  0  0  0  0  0  0  0  0  0  0  0
  -20.9502   12.5605   16.6802 C   0  0  0  0  0  0  0  0  0  0  0  0
  -19.6507   13.0225   16.8514 C   0  0  0  0  0  0  0  0  0  0  0  0
  -18.6172   12.1200   17.0449 C   0  0  0  0  0  0  0  0  0  0  0  0
  -18.8223   10.7532   17.0765 C   0  0  0  0  0  0  0  0  0  0  0  0
 22 23  1  0
 23 24  1  0
 24 25  1  0
 25 26  1  0
 26 27  1  0
 27 28  1  0
 28 29  1  0
 29 30  1  0
 30 31  2  0
 31 32  1  0
 32 33  1  0
 33 34  2  0
 34 35  1  0
 35 36  2  0
 36 37  1  0
 37 38  2  0
 25 18  1  0
 18 19  2  0
 18 20  1  0
  1 20  1  0
  1  2  1  0
  1  3  1  0
  3  4  1  0
  4  5  1  0
  4  6  1  0
  6  7  1  0
  7  8  1  0
  8  9  1  0
  9 10  1  0
 10 11  1  0
 11 12  2  0
 11 13  1  0
 13 40  1  0
 40 41  1  0
 41 42  2  0
 42 43  1  0
 43 44  2  0
 44 45  1  0
 45 46  2  0
 13 14  1  0
 14 15  1  0
 15 16  2  0
 28 23  1  0
 37 27  1  0
 38 30  1  0
 38 33  1  0
 15  1  1  0
 14  4  1  0
 10  6  1  0
 46 41  1  0
 32 39  1  0
 20 21  1  0
  5 17  1  0
M  END
> <minimizedAffinity>
-6.15498

> <CNNscore>
0.3652002513

> <CNNaffinity>
7.1526627541

> <CNN_VS>
2.6121542454

> <CNNaffinity_variance>
0.2772734761

$$$$



 46 53  0  0  0  0  0  0  0  0999 V2000
  -20.0291   12.4700   24.9799 C   0  0  0  0  0  0  0  0  0  0  0  0
  -19.1272   12.9027   26.1117 C   0  0  0  0  0  0  0  0  0  0  0  0
  -21.0114   13.4305   24.8566 O   0  0  0  0  0  0  0  0  0  0  0  0
  -20.7076   14.2771   23.8160 C   0  0  0  0  0  0  0  0  0  0  0  0
  -21.8157   14.3082   22.9688 O   0  0  0  0  0  0  0  0  0  0  0  0
  -20.5444   15.6525   24.3772 C   0  0  0  0  0  0  0  0  0  0  0  0
  -21.7670   16.5412   24.1320 C   0  0  0  0  0  0  0  0  0  0  0  0
  -21.1890   17.9380   24.2906 C   0  0  0  0  0  0  0  0  0  0  0  0
  -19.6833   17.8009   24.2268 C   0  0  0  0  0  0  0  0  0  0  0  0
  -19.5255   16.4497   23.7211 N   0  0  0  0  0  0  0  0  0  0  0  0
  -18.6024   15.9123   22.7812 C   0  0  0  0  0  0  0  0  0  0  0  0
  -17.5386   16.5147   22.4787 O   0  0  0  0  0  0  0  0  0  0  0  0
  -18.9101   14.6060   22.1459 C   0  0  0  0  0  0  0  0  0  0  0  0
  -19.5260   13.7891   23.1474 N   0  0  0  0  0  0  0  0  0  0  0  0
  -19.2540   12.4977   23.7117 C   0  0  0  0  0  0  0  0  0  0  0  0
  -18.5133   11.6174   23.2034 O   0  0  0  0  0  0  0  0  0  0  0  0
  -22.2400   13.4139   22.9123 H   0  0  0  0  0  0  0  0  0  0  0  0
  -21.2554   10.8601   26.4757 C   0  0  0  0  0  0  0  0  0  0  0  0
  -21.3009   11.6601   27.4454 O   0  0  0  0  0  0  0  0  0  0  0  0
  -20.6493   11.1936   25.2451 N   0  0  0  0  0  0  0  0  0  0  0  0
  -20.6715   10.4364   24.4984 H   0  0  0  0  0  0  0  0  0  0  0  0
  -25.3502    9.6367   26.8796 C   0  0  0  0  0  0  0  0  0  0  0  0
  -24.1976    8.8169   27.1228 N   0  0  0  0  0  0  0  0  0  0  0  0
  -23.0513    9.5133   27.5802 C   0  0  0  0  0  0  0  0  0  0  0  0
  -21.8763    9.5173   26.6713 C   0  0  0  0  0  0  0  0  0  0  0  0
  -22.1038    8.8233   25.3430 C   0  0  0  0  0  0  0  0  0  0  0  0
  -22.6591    7.4830   25.7139 C   0  0  0  0  0  0  0  0  0  0  0  0
  -24.0410    7.7178   26.2572 C   0  0  0  0  0  0  0  0  0  0  0  0
  -24.5978    6.4012   26.7880 C   0  0  0  0  0  0  0  0  0  0  0  0
  -24.6612    5.4381   25.6610 C   0  0  0  0  0  0  0  0  0  0  0  0
  -25.4490    4.3641   25.3029 C   0  0  0  0  0  0  0  0  0  0  0  0
  -24.9909    3.8718   24.1124 N   0  0  0  0  0  0  0  0  0  0  0  0
  -23.9357    4.5971   23.6986 C   0  0  0  0  0  0  0  0  0  0  0  0
  -23.0792    4.5915   22.6185 C   0  0  0  0  0  0  0  0  0  0  0  0
  -22.0571    5.5408   22.5269 C   0  0  0  0  0  0  0  0  0  0  0  0
  -21.8851    6.5061   23.5204 C   0  0  0  0  0  0  0  0  0  0  0  0
  -22.7478    6.5142   24.6117 C   0  0  0  0  0  0  0  0  0  0  0  0
  -23.7341    5.5615   24.6542 C   0  0  0  0  0  0  0  0  0  0  0  0
  -25.3724    3.0575   23.5704 H   0  0  0  0  0  0  0  0  0  0  0  0
  -19.7558   14.7773   20.9047 C   0  0  0  0  0  0  0  0  0  0  0  0
  -19.0086   14.0805   19.8005 C   0  0  0  0  0  0  0  0  0  0  0  0
  -19.7956   13.4590   18.8425 C   0  0  0  0  0  0  0  0  0  0  0  0
  -19.2056   12.7894   17.7834 C   0  0  0  0  0  0  0  0  0  0  0  0
  -17.8181   12.7589   17.7094 C   0  0  0  0  0  0  0  0  0  0  0  0
  -17.0609   13.3901   18.6832 C   0  0  0  0  0  0  0  0  0  0  0  0
  -17.6327   14.0629   19.7470 C   0  0  0  0  0  0  0  0  0  0  0  0
 22 23  1  0
 23 24  1  0
 24 25  1  0
 25 26  1  0
 26 27  1  0
 27 28  1  0
 28 29  1  0
 29 30  1  0
 30 31  2  0
 31 32  1  0
 32 33  1  0
 33 34  2  0
 34 35  1  0
 35 36  2  0
 36 37  1  0
 37 38  2  0
 25 18  1  0
 18 19  2  0
 18 20  1  0
  1 20  1  0
  1  2  1  0
  1  3  1  0
  3  4  1  0
  4  5  1  0
  4  6  1  0
  6  7  1  0
  7  8  1  0
  8  9  1  0
  9 10  1  0
 10 11  1  0
 11 12  2  0
 11 13  1  0
 13 40  1  0
 40 41  1  0
 41 42  2  0
 42 43  1  0
 43 44  2  0
 44 45  1  0
 45 46  2  0
 13 14  1  0
 14 15  1  0
 15 16  2  0
 28 23  1  0
 37 27  1  0
 38 30  1  0
 38 33  1  0
 15  1  1  0
 14  4  1  0
 10  6  1  0
 46 41  1  0
 32 39  1  0
 20 21  1  0
  5 17  1  0
M  END
> <minimizedAffinity>
-13.48276

> <CNNscore>
0.3572873771

> <CNNaffinity>
7.1327590942

> <CNN_VS>
2.5484447479

> <CNNaffinity_variance>
0.4853219390

$$$$



 46 53  0  0  0  0  0  0  0  0999 V2000
  -19.4565   12.4668   26.0778 C   0  0  0  0  0  0  0  0  0  0  0  0
  -17.9806   12.2022   25.8957 C   0  0  0  0  0  0  0  0  0  0  0  0
  -19.5819   13.3454   27.1337 O   0  0  0  0  0  0  0  0  0  0  0  0
  -19.7759   14.6213   26.6580 C   0  0  0  0  0  0  0  0  0  0  0  0
  -20.9295   15.1197   27.2644 O   0  0  0  0  0  0  0  0  0  0  0  0
  -18.6339   15.4635   27.1265 C   0  0  0  0  0  0  0  0  0  0  0  0
  -19.0023   16.3506   28.3189 C   0  0  0  0  0  0  0  0  0  0  0  0
  -17.9316   17.4281   28.2639 C   0  0  0  0  0  0  0  0  0  0  0  0
  -17.2855   17.3369   26.8986 C   0  0  0  0  0  0  0  0  0  0  0  0
  -18.2146   16.4821   26.1827 N   0  0  0  0  0  0  0  0  0  0  0  0
  -18.6839   16.5401   24.8408 C   0  0  0  0  0  0  0  0  0  0  0  0
  -18.0799   17.2017   23.9557 O   0  0  0  0  0  0  0  0  0  0  0  0
  -19.9193   15.7974   24.4844 C   0  0  0  0  0  0  0  0  0  0  0  0
  -19.8962   14.5701   25.2213 N   0  0  0  0  0  0  0  0  0  0  0  0
  -19.9678   13.1785   24.8770 C   0  0  0  0  0  0  0  0  0  0  0  0
  -20.3811   12.7147   23.7834 O   0  0  0  0  0  0  0  0  0  0  0  0
  -21.6097   14.4056   27.3656 H   0  0  0  0  0  0  0  0  0  0  0  0
  -20.2038   10.1245   25.5409 C   0  0  0  0  0  0  0  0  0  0  0  0
  -19.5787   10.0819   24.4501 O   0  0  0  0  0  0  0  0  0  0  0  0
  -20.1854   11.2583   26.3818 N   0  0  0  0  0  0  0  0  0  0  0  0
  -20.7518   11.1782   27.2786 H   0  0  0  0  0  0  0  0  0  0  0  0
  -24.2938    9.6183   26.7424 C   0  0  0  0  0  0  0  0  0  0  0  0
  -23.2612    8.6250   26.8269 N   0  0  0  0  0  0  0  0  0  0  0  0
  -21.9540    9.1337   27.0288 C   0  0  0  0  0  0  0  0  0  0  0  0
  -20.9829    8.9116   25.9269 C   0  0  0  0  0  0  0  0  0  0  0  0
  -21.5607    8.2236   24.7060 C   0  0  0  0  0  0  0  0  0  0  0  0
  -22.2432    7.0079   25.2522 C   0  0  0  0  0  0  0  0  0  0  0  0
  -23.4449    7.4882   26.0171 C   0  0  0  0  0  0  0  0  0  0  0  0
  -24.0955    6.3011   26.7193 C   0  0  0  0  0  0  0  0  0  0  0  0
  -24.5194    5.3269   25.6836 C   0  0  0  0  0  0  0  0  0  0  0  0
  -25.5205    4.3893   25.5388 C   0  0  0  0  0  0  0  0  0  0  0  0
  -25.3757    3.7894   24.3186 N   0  0  0  0  0  0  0  0  0  0  0  0
  -24.3142    4.3140   23.6793 C   0  0  0  0  0  0  0  0  0  0  0  0
  -23.6852    4.1305   22.4666 C   0  0  0  0  0  0  0  0  0  0  0  0
  -22.5603    4.8916   22.1357 C   0  0  0  0  0  0  0  0  0  0  0  0
  -22.0555    5.8456   23.0209 C   0  0  0  0  0  0  0  0  0  0  0  0
  -22.6880    6.0331   24.2457 C   0  0  0  0  0  0  0  0  0  0  0  0
  -23.7879    5.2610   24.5221 C   0  0  0  0  0  0  0  0  0  0  0  0
  -25.9757    3.0338   23.9048 H   0  0  0  0  0  0  0  0  0  0  0  0
  -21.1580   16.6269   24.7346 C   0  0  0  0  0  0  0  0  0  0  0  0
  -20.8891   17.9654   24.1029 C   0  0  0  0  0  0  0  0  0  0  0  0
  -20.4317   17.9304   22.7941 C   0  0  0  0  0  0  0  0  0  0  0  0
  -20.1543   19.1085   22.1210 C   0  0  0  0  0  0  0  0  0  0  0  0
  -20.3456   20.3130   22.7875 C   0  0  0  0  0  0  0  0  0  0  0  0
  -20.8039   20.3130   24.0952 C   0  0  0  0  0  0  0  0  0  0  0  0
  -21.0857   19.1470   24.7823 C   0  0  0  0  0  0  0  0  0  0  0  0
 22 23  1  0
 23 24  1  0
 24 25  1  0
 25 26  1  0
 26 27  1  0
 27 28  1  0
 28 29  1  0
 29 30  1  0
 30 31  2  0
 31 32  1  0
 32 33  1  0
 33 34  2  0
 34 35  1  0
 35 36  2  0
 36 37  1  0
 37 38  2  0
 25 18  1  0
 18 19  2  0
 18 20  1  0
  1 20  1  0
  1  2  1  0
  1  3  1  0
  3  4  1  0
  4  5  1  0
  4  6  1  0
  6  7  1  0
  7  8  1  0
  8  9  1  0
  9 10  1  0
 10 11  1  0
 11 12  2  0
 11 13  1  0
 13 40  1  0
 40 41  1  0
 41 42  2  0
 42 43  1  0
 43 44  2  0
 44 45  1  0
 45 46  2  0
 13 14  1  0
 14 15  1  0
 15 16  2  0
 28 23  1  0
 37 27  1  0
 38 30  1  0
 38 33  1  0
 15  1  1  0
 14  4  1  0
 10  6  1  0
 46 41  1  0
 32 39  1  0
 20 21  1  0
  5 17  1  0
M  END
> <minimizedAffinity>
-9.92823

> <CNNscore>
0.3327086568

> <CNNaffinity>
7.0544219017

> <CNN_VS>
2.3470671177

> <CNNaffinity_variance>
0.1040002108

$$$$



 46 53  0  0  0  0  0  0  0  0999 V2000
  -19.1432   17.2424   23.6910 C   0  0  0  0  0  0  0  0  0  0  0  0
  -19.1613   18.7527   23.6747 C   0  0  0  0  0  0  0  0  0  0  0  0
  -17.9076   16.8586   24.1692 O   0  0  0  0  0  0  0  0  0  0  0  0
  -18.0076   16.5160   25.4975 C   0  0  0  0  0  0  0  0  0  0  0  0
  -17.4698   15.2362   25.6379 O   0  0  0  0  0  0  0  0  0  0  0  0
  -17.1370   17.4469   26.2775 C   0  0  0  0  0  0  0  0  0  0  0  0
  -15.8084   16.8081   26.6917 C   0  0  0  0  0  0  0  0  0  0  0  0
  -15.3724   17.6901   27.8503 C   0  0  0  0  0  0  0  0  0  0  0  0
  -16.5840   18.4921   28.2729 C   0  0  0  0  0  0  0  0  0  0  0  0
  -17.6580   17.7999   27.5844 N   0  0  0  0  0  0  0  0  0  0  0  0
  -18.9785   17.4816   28.0077 C   0  0  0  0  0  0  0  0  0  0  0  0
  -19.5210   18.0666   28.9821 O   0  0  0  0  0  0  0  0  0  0  0  0
  -19.7287   16.4304   27.2748 C   0  0  0  0  0  0  0  0  0  0  0  0
  -19.3951   16.5681   25.8894 N   0  0  0  0  0  0  0  0  0  0  0  0
  -20.1434   16.7615   24.6800 C   0  0  0  0  0  0  0  0  0  0  0  0
  -21.3761   16.5543   24.5402 O   0  0  0  0  0  0  0  0  0  0  0  0
  -17.6932   14.6732   24.8531 H   0  0  0  0  0  0  0  0  0  0  0  0
  -18.2692   16.4209   21.4786 C   0  0  0  0  0  0  0  0  0  0  0  0
  -17.0669   16.6479   21.7707 O   0  0  0  0  0  0  0  0  0  0  0  0
  -19.3300   16.6886   22.3709 N   0  0  0  0  0  0  0  0  0  0  0  0
  -20.3045   16.4558   22.0138 H   0  0  0  0  0  0  0  0  0  0  0  0
  -15.6806   14.6799   18.5299 C   0  0  0  0  0  0  0  0  0  0  0  0
  -17.0550   15.0445   18.3352 N   0  0  0  0  0  0  0  0  0  0  0  0
  -17.5013   16.1410   19.1142 C   0  0  0  0  0  0  0  0  0  0  0  0
  -18.5453   15.8469   20.1291 C   0  0  0  0  0  0  0  0  0  0  0  0
  -18.9351   14.3854   20.2279 C   0  0  0  0  0  0  0  0  0  0  0  0
  -19.2408   13.9858   18.8175 C   0  0  0  0  0  0  0  0  0  0  0  0
  -17.9348   13.9772   18.0731 C   0  0  0  0  0  0  0  0  0  0  0  0
  -18.2059   13.7202   16.5947 C   0  0  0  0  0  0  0  0  0  0  0  0
  -18.8615   12.3951   16.4683 C   0  0  0  0  0  0  0  0  0  0  0  0
  -18.9123   11.3871   15.5283 C   0  0  0  0  0  0  0  0  0  0  0  0
  -19.7127   10.3887   16.0102 N   0  0  0  0  0  0  0  0  0  0  0  0
  -20.1746   10.7267   17.2281 C   0  0  0  0  0  0  0  0  0  0  0  0
  -20.9911   10.1581   18.1820 C   0  0  0  0  0  0  0  0  0  0  0  0
  -21.2551   10.8358   19.3759 C   0  0  0  0  0  0  0  0  0  0  0  0
  -20.7009   12.0928   19.6234 C   0  0  0  0  0  0  0  0  0  0  0  0
  -19.8765   12.6694   18.6625 C   0  0  0  0  0  0  0  0  0  0  0  0
  -19.6490   11.9634   17.5084 C   0  0  0  0  0  0  0  0  0  0  0  0
  -19.9560    9.4831   15.5380 H   0  0  0  0  0  0  0  0  0  0  0  0
  -19.4415   15.0538   27.8294 C   0  0  0  0  0  0  0  0  0  0  0  0
  -20.3044   14.1065   27.0412 C   0  0  0  0  0  0  0  0  0  0  0  0
  -21.6641   14.1715   27.3062 C   0  0  0  0  0  0  0  0  0  0  0  0
  -22.5456   13.3415   26.6338 C   0  0  0  0  0  0  0  0  0  0  0  0
  -22.0338   12.4520   25.6966 C   0  0  0  0  0  0  0  0  0  0  0  0
  -20.6699   12.4123   25.4555 C   0  0  0  0  0  0  0  0  0  0  0  0
  -19.7756   13.2331   26.1171 C   0  0  0  0  0  0  0  0  0  0  0  0
 22 23  1  0
 23 24  1  0
 24 25  1  0
 25 26  1  0
 26 27  1  0
 27 28  1  0
 28 29  1  0
 29 30  1  0
 30 31  2  0
 31 32  1  0
 32 33  1  0
 33 34  2  0
 34 35  1  0
 35 36  2  0
 36 37  1  0
 37 38  2  0
 25 18  1  0
 18 19  2  0
 18 20  1  0
  1 20  1  0
  1  2  1  0
  1  3  1  0
  3  4  1  0
  4  5  1  0
  4  6  1  0
  6  7  1  0
  7  8  1  0
  8  9  1  0
  9 10  1  0
 10 11  1  0
 11 12  2  0
 11 13  1  0
 13 40  1  0
 40 41  1  0
 41 42  2  0
 42 43  1  0
 43 44  2  0
 44 45  1  0
 45 46  2  0
 13 14  1  0
 14 15  1  0
 15 16  2  0
 28 23  1  0
 37 27  1  0
 38 30  1  0
 38 33  1  0
 15  1  1  0
 14  4  1  0
 10  6  1  0
 46 41  1  0
 32 39  1  0
 20 21  1  0
  5 17  1  0
M  END
> <minimizedAffinity>
-7.56345

> <CNNscore>
0.3252778649

> <CNNaffinity>
6.9526681900

> <CNN_VS>
2.2615489960

> <CNNaffinity_variance>
0.2083370239

$$$$



 46 53  0  0  0  0  0  0  0  0999 V2000
  -21.8453   10.3055   22.4373 C   0  0  0  0  0  0  0  0  0  0  0  0
  -22.9340    9.3803   22.9278 C   0  0  0  0  0  0  0  0  0  0  0  0
  -20.6768    9.5731   22.4062 O   0  0  0  0  0  0  0  0  0  0  0  0
  -20.4165    9.1650   21.1187 C   0  0  0  0  0  0  0  0  0  0  0  0
  -19.1204    9.5766   20.8066 O   0  0  0  0  0  0  0  0  0  0  0  0
  -20.4194    7.6708   21.1024 C   0  0  0  0  0  0  0  0  0  0  0  0
  -19.0086    7.0760   21.0820 C   0  0  0  0  0  0  0  0  0  0  0  0
  -19.2560    5.6739   20.5497 C   0  0  0  0  0  0  0  0  0  0  0  0
  -20.6467    5.6688   19.9534 C   0  0  0  0  0  0  0  0  0  0  0  0
  -20.9500    7.0865   19.8853 N   0  0  0  0  0  0  0  0  0  0  0  0
  -21.6195    7.8455   18.8854 C   0  0  0  0  0  0  0  0  0  0  0  0
  -22.3521    7.2994   18.0187 O   0  0  0  0  0  0  0  0  0  0  0  0
  -21.4438    9.3198   18.8717 C   0  0  0  0  0  0  0  0  0  0  0  0
  -21.3986    9.7479   20.2372 N   0  0  0  0  0  0  0  0  0  0  0  0
  -22.1383   10.6875   21.0309 C   0  0  0  0  0  0  0  0  0  0  0  0
  -22.8622   11.6140   20.5842 O   0  0  0  0  0  0  0  0  0  0  0  0
  -18.9269   10.4625   21.2075 H   0  0  0  0  0  0  0  0  0  0  0  0
  -20.7227   12.4622   23.0864 C   0  0  0  0  0  0  0  0  0  0  0  0
  -19.9551   12.4637   22.0898 O   0  0  0  0  0  0  0  0  0  0  0  0
  -21.6676   11.4385   23.3142 N   0  0  0  0  0  0  0  0  0  0  0  0
  -22.2618   11.5441   24.1902 H   0  0  0  0  0  0  0  0  0  0  0  0
  -19.5073   12.6251   27.2002 C   0  0  0  0  0  0  0  0  0  0  0  0
  -20.1172   13.6918   26.4585 N   0  0  0  0  0  0  0  0  0  0  0  0
  -21.0052   13.2794   25.4339 C   0  0  0  0  0  0  0  0  0  0  0  0
  -20.6004   13.6022   24.0416 C   0  0  0  0  0  0  0  0  0  0  0  0
  -19.2474   14.2743   23.9177 C   0  0  0  0  0  0  0  0  0  0  0  0
  -19.3121   15.4205   24.8792 C   0  0  0  0  0  0  0  0  0  0  0  0
  -19.3140   14.8311   26.2620 C   0  0  0  0  0  0  0  0  0  0  0  0
  -19.5275   15.9473   27.2788 C   0  0  0  0  0  0  0  0  0  0  0  0
  -18.4076   16.9119   27.1486 C   0  0  0  0  0  0  0  0  0  0  0  0
  -17.7247   17.7738   27.9811 C   0  0  0  0  0  0  0  0  0  0  0  0
  -16.7653   18.4131   27.2458 N   0  0  0  0  0  0  0  0  0  0  0  0
  -16.8137   17.9870   25.9704 C   0  0  0  0  0  0  0  0  0  0  0  0
  -16.1312   18.2481   24.8015 C   0  0  0  0  0  0  0  0  0  0  0  0
  -16.4780   17.5834   23.6216 C   0  0  0  0  0  0  0  0  0  0  0  0
  -17.5147   16.6489   23.6042 C   0  0  0  0  0  0  0  0  0  0  0  0
  -18.2054   16.3833   24.7822 C   0  0  0  0  0  0  0  0  0  0  0  0
  -17.8263   17.0622   25.9125 C   0  0  0  0  0  0  0  0  0  0  0  0
  -16.0772   19.1309   27.5828 H   0  0  0  0  0  0  0  0  0  0  0  0
  -20.2271    9.7270   18.0724 C   0  0  0  0  0  0  0  0  0  0  0  0
  -20.2077   11.2312   18.0936 C   0  0  0  0  0  0  0  0  0  0  0  0
  -21.3462   11.8530   17.6031 C   0  0  0  0  0  0  0  0  0  0  0  0
  -21.4296   13.2352   17.5789 C   0  0  0  0  0  0  0  0  0  0  0  0
  -20.3519   13.9724   18.0550 C   0  0  0  0  0  0  0  0  0  0  0  0
  -19.2291   13.3200   18.5384 C   0  0  0  0  0  0  0  0  0  0  0  0
  -19.1285   11.9415   18.5701 C   0  0  0  0  0  0  0  0  0  0  0  0
 22 23  1  0
 23 24  1  0
 24 25  1  0
 25 26  1  0
 26 27  1  0
 27 28  1  0
 28 29  1  0
 29 30  1  0
 30 31  2  0
 31 32  1  0
 32 33  1  0
 33 34  2  0
 34 35  1  0
 35 36  2  0
 36 37  1  0
 37 38  2  0
 25 18  1  0
 18 19  2  0
 18 20  1  0
  1 20  1  0
  1  2  1  0
  1  3  1  0
  3  4  1  0
  4  5  1  0
  4  6  1  0
  6  7  1  0
  7  8  1  0
  8  9  1  0
  9 10  1  0
 10 11  1  0
 11 12  2  0
 11 13  1  0
 13 40  1  0
 40 41  1  0
 41 42  2  0
 42 43  1  0
 43 44  2  0
 44 45  1  0
 45 46  2  0
 13 14  1  0
 14 15  1  0
 15 16  2  0
 28 23  1  0
 37 27  1  0
 38 30  1  0
 38 33  1  0
 15  1  1  0
 14  4  1  0
 10  6  1  0
 46 41  1  0
 32 39  1  0
 20 21  1  0
  5 17  1  0
M  END
> <minimizedAffinity>
-11.64605

> <CNNscore>
0.3093180954

> <CNNaffinity>
7.0790433884

> <CNN_VS>
2.1896762848

> <CNNaffinity_variance>
0.0679282844

$$$$



 46 53  0  0  0  0  0  0  0  0999 V2000
  -22.0308    8.6712   23.3462 C   0  0  0  0  0  0  0  0  0  0  0  0
  -21.7621    7.2211   23.0196 C   0  0  0  0  0  0  0  0  0  0  0  0
  -23.3789    8.7810   23.6170 O   0  0  0  0  0  0  0  0  0  0  0  0
  -23.5806    8.8079   24.9773 C   0  0  0  0  0  0  0  0  0  0  0  0
  -24.3378    9.9445   25.2626 O   0  0  0  0  0  0  0  0  0  0  0  0
  -24.4139    7.6218   25.3403 C   0  0  0  0  0  0  0  0  0  0  0  0
  -25.8823    7.9816   25.5832 C   0  0  0  0  0  0  0  0  0  0  0  0
  -26.3714    6.8044   26.4110 C   0  0  0  0  0  0  0  0  0  0  0  0
  -25.1423    6.0746   26.9074 C   0  0  0  0  0  0  0  0  0  0  0  0
  -24.0893    7.0330   26.6257 N   0  0  0  0  0  0  0  0  0  0  0  0
  -22.9387    7.3961   27.3797 C   0  0  0  0  0  0  0  0  0  0  0  0
  -22.4944    6.6650   28.3039 O   0  0  0  0  0  0  0  0  0  0  0  0
  -22.2504    8.6726   27.0608 C   0  0  0  0  0  0  0  0  0  0  0  0
  -22.2985    8.8292   25.6385 N   0  0  0  0  0  0  0  0  0  0  0  0
  -21.3206    9.0187   24.6051 C   0  0  0  0  0  0  0  0  0  0  0  0
  -20.1342    9.3980   24.7798 O   0  0  0  0  0  0  0  0  0  0  0  0
  -24.0705   10.7002   24.6792 H   0  0  0  0  0  0  0  0  0  0  0  0
  -21.8019   10.9477   22.2982 C   0  0  0  0  0  0  0  0  0  0  0  0
  -22.1937   11.5565   23.3268 O   0  0  0  0  0  0  0  0  0  0  0  0
  -21.6999    9.5407   22.2423 N   0  0  0  0  0  0  0  0  0  0  0  0
  -21.3569    9.1382   21.3194 H   0  0  0  0  0  0  0  0  0  0  0  0
  -18.2085   13.0643   21.2809 C   0  0  0  0  0  0  0  0  0  0  0  0
  -19.4717   13.1763   20.6089 N   0  0  0  0  0  0  0  0  0  0  0  0
  -20.6085   12.9673   21.4289 C   0  0  0  0  0  0  0  0  0  0  0  0
  -21.4400   11.7779   21.1121 C   0  0  0  0  0  0  0  0  0  0  0  0
  -20.9046   10.9157   19.9862 C   0  0  0  0  0  0  0  0  0  0  0  0
  -20.6579   11.8780   18.8658 C   0  0  0  0  0  0  0  0  0  0  0  0
  -19.4901   12.7325   19.2731 C   0  0  0  0  0  0  0  0  0  0  0  0
  -19.2878   13.8284   18.2322 C   0  0  0  0  0  0  0  0  0  0  0  0
  -19.0019   13.1806   16.9283 C   0  0  0  0  0  0  0  0  0  0  0  0
  -18.2803   13.4866   15.7934 C   0  0  0  0  0  0  0  0  0  0  0  0
  -18.4098   12.4522   14.9086 N   0  0  0  0  0  0  0  0  0  0  0  0
  -19.1909   11.4951   15.4422 C   0  0  0  0  0  0  0  0  0  0  0  0
  -19.6705   10.2627   15.0533 C   0  0  0  0  0  0  0  0  0  0  0  0
  -20.4913    9.5251   15.9115 C   0  0  0  0  0  0  0  0  0  0  0  0
  -20.8387   10.0188   17.1701 C   0  0  0  0  0  0  0  0  0  0  0  0
  -20.3563   11.2623   17.5654 C   0  0  0  0  0  0  0  0  0  0  0  0
  -19.5548   11.9459   16.6865 C   0  0  0  0  0  0  0  0  0  0  0  0
  -17.9839   12.3747   13.9521 H   0  0  0  0  0  0  0  0  0  0  0  0
  -22.8562    9.8340   27.8153 C   0  0  0  0  0  0  0  0  0  0  0  0
  -22.0838   11.0506   27.3832 C   0  0  0  0  0  0  0  0  0  0  0  0
  -22.8412   12.0871   26.8583 C   0  0  0  0  0  0  0  0  0  0  0  0
  -22.2265   13.2522   26.4309 C   0  0  0  0  0  0  0  0  0  0  0  0
  -20.8447   13.3514   26.5422 C   0  0  0  0  0  0  0  0  0  0  0  0
  -20.1174   12.2972   27.0712 C   0  0  0  0  0  0  0  0  0  0  0  0
  -20.7141   11.1272   27.5026 C   0  0  0  0  0  0  0  0  0  0  0  0
 22 23  1  0
 23 24  1  0
 24 25  1  0
 25 26  1  0
 26 27  1  0
 27 28  1  0
 28 29  1  0
 29 30  1  0
 30 31  2  0
 31 32  1  0
 32 33  1  0
 33 34  2  0
 34 35  1  0
 35 36  2  0
 36 37  1  0
 37 38  2  0
 25 18  1  0
 18 19  2  0
 18 20  1  0
  1 20  1  0
  1  2  1  0
  1  3  1  0
  3  4  1  0
  4  5  1  0
  4  6  1  0
  6  7  1  0
  7  8  1  0
  8  9  1  0
  9 10  1  0
 10 11  1  0
 11 12  2  0
 11 13  1  0
 13 40  1  0
 40 41  1  0
 41 42  2  0
 42 43  1  0
 43 44  2  0
 44 45  1  0
 45 46  2  0
 13 14  1  0
 14 15  1  0
 15 16  2  0
 28 23  1  0
 37 27  1  0
 38 30  1  0
 38 33  1  0
 15  1  1  0
 14  4  1  0
 10  6  1  0
 46 41  1  0
 32 39  1  0
 20 21  1  0
  5 17  1  0
M  END
> <minimizedAffinity>
-12.95369

> <CNNscore>
0.2817974091

> <CNNaffinity>
7.7131142616

> <CNN_VS>
2.1735355854

> <CNNaffinity_variance>
0.3515727222

$$$$
