


 34 37  0  0  0  0  0  0  0  0999 V2000
  -23.8048    8.7103   25.3407 O   0  0  0  0  0  0  0  0  0  0  0  0
  -23.4044    4.3374   22.9899 C   0  0  0  0  0  0  0  0  0  0  0  0
  -23.6410    3.0693   23.5297 C   0  0  0  0  0  0  0  0  0  0  0  0
  -24.0050    3.2354   24.8289 N   0  0  0  0  0  0  0  0  0  0  0  0
  -23.9983    4.5481   25.0968 C   0  0  0  0  0  0  0  0  0  0  0  0
  -24.3001    5.2086   26.2885 C   0  0  0  0  0  0  0  0  0  0  0  0
  -24.2216    6.5826   26.3186 C   0  0  0  0  0  0  0  0  0  0  0  0
  -23.8564    7.3168   25.2142 C   0  0  0  0  0  0  0  0  0  0  0  0
  -23.5574    6.6672   24.0354 C   0  0  0  0  0  0  0  0  0  0  0  0
  -23.6332    5.2771   23.9923 C   0  0  0  0  0  0  0  0  0  0  0  0
  -24.2372    2.4235   25.4529 H   0  0  0  0  0  0  0  0  0  0  0  0
  -22.9845    4.6471   21.6041 C   0  0  0  0  0  0  0  0  0  0  0  0
  -21.1123    5.1723   20.1671 N   0  0  0  0  0  0  0  0  0  0  0  0
  -21.4725    4.7879   21.5123 C   0  0  0  0  0  0  0  0  0  0  0  0
  -21.5585    4.5270   19.4936 H   0  0  0  0  0  0  0  0  0  0  0  0
  -20.0516    5.1630   20.1085 H   0  0  0  0  0  0  0  0  0  0  0  0
  -21.4006    6.1754   20.0387 H   0  0  0  0  0  0  0  0  0  0  0  0
  -22.6313    9.3881   25.0653 C   0  0  0  0  0  0  0  0  0  0  0  0
  -22.4448    9.7050   23.6487 C   0  0  0  0  0  0  0  0  0  0  0  0
  -23.4391    9.3249   22.8968 O   0  0  0  0  0  0  0  0  0  0  0  0
  -21.3990   10.3376   22.9935 N   0  0  0  0  0  0  0  0  0  0  0  0
  -20.2010   10.9095   23.5678 C   0  0  0  0  0  0  0  0  0  0  0  0
  -19.7896   12.1631   22.7792 C   0  0  0  0  0  0  0  0  0  0  0  0
  -19.5162   11.7488   21.4159 N   0  0  0  0  0  0  0  0  0  0  0  0
  -20.0762   10.4797   20.9960 C   0  0  0  0  0  0  0  0  0  0  0  0
  -21.4955   10.4618   21.5206 C   0  0  0  0  0  0  0  0  0  0  0  0
  -18.7369   12.5893   20.5826 C   0  0  0  0  0  0  0  0  0  0  0  0
  -18.2977   13.7874   21.1162 C   0  0  0  0  0  0  0  0  0  0  0  0
  -17.5218   14.6657   20.3470 C   0  0  0  0  0  0  0  0  0  0  0  0
  -17.1818   14.3521   19.0439 C   0  0  0  0  0  0  0  0  0  0  0  0
  -17.6219   13.1555   18.5141 C   0  0  0  0  0  0  0  0  0  0  0  0
  -18.3955   12.2816   19.2844 C   0  0  0  0  0  0  0  0  0  0  0  0
  -16.3770   15.2656   18.2476 C   0  0  0  0  0  0  0  0  0  0  0  0
  -15.7426   15.9935   17.6008 N   0  0  0  0  0  0  0  0  0  0  0  0
 13 14  1  0
 14 12  1  0
 12  2  1  0
  2  3  2  0
  3  4  1  0
  4  5  1  0
  5  6  2  0
  6  7  1  0
  7  8  2  0
  8  1  1  0
  1 18  1  0
 18 19  1  0
 19 20  2  0
 19 21  1  0
 21 22  1  0
 22 23  1  0
 23 24  1  0
 24 25  1  0
 25 26  1  0
 24 27  1  0
 27 28  2  0
 28 29  1  0
 29 30  2  0
 30 31  1  0
 31 32  2  0
 30 33  1  0
 33 34  3  0
  8  9  1  0
  9 10  2  0
 10  2  1  0
 10  5  1  0
 26 21  1  0
 32 27  1  0
 13 15  1  0
 13 16  1  0
 13 17  1  0
  4 11  1  0
M  CHG 1  13   1
M  END
> <minimizedAffinity>
-9.02254

> <CNNscore>
0.8379191160

> <CNNaffinity>
6.9011201859

> <CNN_VS>
5.7825803757

> <CNNaffinity_variance>
0.1312212795

$$$$



 34 37  0  0  0  0  0  0  0  0999 V2000
  -22.9481    7.8104   27.1224 O   0  0  0  0  0  0  0  0  0  0  0  0
  -23.1432    5.3869   22.7753 C   0  0  0  0  0  0  0  0  0  0  0  0
  -23.8455    4.2091   22.5015 C   0  0  0  0  0  0  0  0  0  0  0  0
  -24.4771    3.8304   23.6442 N   0  0  0  0  0  0  0  0  0  0  0  0
  -24.1867    4.7280   24.5955 C   0  0  0  0  0  0  0  0  0  0  0  0
  -24.5992    4.7685   25.9280 C   0  0  0  0  0  0  0  0  0  0  0  0
  -24.1636    5.8057   26.7215 C   0  0  0  0  0  0  0  0  0  0  0  0
  -23.3389    6.7958   26.2402 C   0  0  0  0  0  0  0  0  0  0  0  0
  -22.9294    6.7585   24.9241 C   0  0  0  0  0  0  0  0  0  0  0  0
  -23.3633    5.7140   24.1112 C   0  0  0  0  0  0  0  0  0  0  0  0
  -25.0742    2.9681   23.6938 H   0  0  0  0  0  0  0  0  0  0  0  0
  -22.3088    6.1623   21.8290 C   0  0  0  0  0  0  0  0  0  0  0  0
  -21.0755    5.5678   19.8362 N   0  0  0  0  0  0  0  0  0  0  0  0
  -21.1975    5.2993   21.2504 C   0  0  0  0  0  0  0  0  0  0  0  0
  -22.0043    5.4870   19.3891 H   0  0  0  0  0  0  0  0  0  0  0  0
  -20.3662    4.8812   19.4436 H   0  0  0  0  0  0  0  0  0  0  0  0
  -20.6435    6.5210   19.7331 H   0  0  0  0  0  0  0  0  0  0  0  0
  -23.2434    9.1304   26.8348 C   0  0  0  0  0  0  0  0  0  0  0  0
  -22.0652    9.9689   26.6093 C   0  0  0  0  0  0  0  0  0  0  0  0
  -21.3445   10.1498   27.6800 O   0  0  0  0  0  0  0  0  0  0  0  0
  -21.6013   10.5859   25.4572 N   0  0  0  0  0  0  0  0  0  0  0  0
  -22.1563   10.5194   24.1232 C   0  0  0  0  0  0  0  0  0  0  0  0
  -21.0246   10.5471   23.0835 C   0  0  0  0  0  0  0  0  0  0  0  0
  -20.3164   11.8031   23.2452 N   0  0  0  0  0  0  0  0  0  0  0  0
  -20.4879   12.4894   24.5102 C   0  0  0  0  0  0  0  0  0  0  0  0
  -20.3835   11.4207   25.5763 C   0  0  0  0  0  0  0  0  0  0  0  0
  -19.5084   12.2810   22.1838 C   0  0  0  0  0  0  0  0  0  0  0  0
  -18.9489   13.5382   22.3234 C   0  0  0  0  0  0  0  0  0  0  0  0
  -18.1384   14.0716   21.3117 C   0  0  0  0  0  0  0  0  0  0  0  0
  -17.8835   13.3532   20.1580 C   0  0  0  0  0  0  0  0  0  0  0  0
  -18.4435   12.0987   20.0215 C   0  0  0  0  0  0  0  0  0  0  0  0
  -19.2514   11.5696   21.0329 C   0  0  0  0  0  0  0  0  0  0  0  0
  -17.0424   13.9093   19.1093 C   0  0  0  0  0  0  0  0  0  0  0  0
  -16.3808   14.3621   18.2681 N   0  0  0  0  0  0  0  0  0  0  0  0
 13 14  1  0
 14 12  1  0
 12  2  1  0
  2  3  2  0
  3  4  1  0
  4  5  1  0
  5  6  2  0
  6  7  1  0
  7  8  2  0
  8  1  1  0
  1 18  1  0
 18 19  1  0
 19 20  2  0
 19 21  1  0
 21 22  1  0
 22 23  1  0
 23 24  1  0
 24 25  1  0
 25 26  1  0
 24 27  1  0
 27 28  2  0
 28 29  1  0
 29 30  2  0
 30 31  1  0
 31 32  2  0
 30 33  1  0
 33 34  3  0
  8  9  1  0
  9 10  2  0
 10  2  1  0
 10  5  1  0
 26 21  1  0
 32 27  1  0
 13 15  1  0
 13 16  1  0
 13 17  1  0
  4 11  1  0
M  CHG 1  13   1
M  END
> <minimizedAffinity>
-10.47437

> <CNNscore>
0.7936899662

> <CNNaffinity>
7.0304093361

> <CNN_VS>
5.5799651146

> <CNNaffinity_variance>
0.1400859505

$$$$



 34 37  0  0  0  0  0  0  0  0999 V2000
  -24.8267    6.7853   25.4561 O   0  0  0  0  0  0  0  0  0  0  0  0
  -21.9012    6.0440   21.4937 C   0  0  0  0  0  0  0  0  0  0  0  0
  -21.4629    4.8145   20.9920 C   0  0  0  0  0  0  0  0  0  0  0  0
  -21.9798    3.8379   21.7839 N   0  0  0  0  0  0  0  0  0  0  0  0
  -22.7106    4.4242   22.7416 C   0  0  0  0  0  0  0  0  0  0  0  0
  -23.4332    3.8414   23.7836 C   0  0  0  0  0  0  0  0  0  0  0  0
  -24.1148    4.6627   24.6530 C   0  0  0  0  0  0  0  0  0  0  0  0
  -24.1030    6.0321   24.5236 C   0  0  0  0  0  0  0  0  0  0  0  0
  -23.3899    6.6111   23.4953 C   0  0  0  0  0  0  0  0  0  0  0  0
  -22.6961    5.7906   22.6090 C   0  0  0  0  0  0  0  0  0  0  0  0
  -21.7929    2.8195   21.6100 H   0  0  0  0  0  0  0  0  0  0  0  0
  -21.5871    7.3858   20.9516 C   0  0  0  0  0  0  0  0  0  0  0  0
  -22.5478    9.3250   19.8735 N   0  0  0  0  0  0  0  0  0  0  0  0
  -22.8586    8.1829   20.7018 C   0  0  0  0  0  0  0  0  0  0  0  0
  -21.7513    9.8411   20.2837 H   0  0  0  0  0  0  0  0  0  0  0  0
  -23.4294    9.9135   19.8020 H   0  0  0  0  0  0  0  0  0  0  0  0
  -22.3588    8.9675   18.9028 H   0  0  0  0  0  0  0  0  0  0  0  0
  -24.3509    6.9336   26.7460 C   0  0  0  0  0  0  0  0  0  0  0  0
  -23.0746    7.6446   26.8322 C   0  0  0  0  0  0  0  0  0  0  0  0
  -22.2639    7.1491   27.7243 O   0  0  0  0  0  0  0  0  0  0  0  0
  -22.5992    8.7386   26.1249 N   0  0  0  0  0  0  0  0  0  0  0  0
  -23.2465    9.4562   25.0488 C   0  0  0  0  0  0  0  0  0  0  0  0
  -22.1971    9.9333   24.0321 C   0  0  0  0  0  0  0  0  0  0  0  0
  -21.2927   10.8289   24.7287 N   0  0  0  0  0  0  0  0  0  0  0  0
  -21.2695   10.7360   26.1749 C   0  0  0  0  0  0  0  0  0  0  0  0
  -21.2610    9.2566   26.4927 C   0  0  0  0  0  0  0  0  0  0  0  0
  -20.4937   11.7250   23.9760 C   0  0  0  0  0  0  0  0  0  0  0  0
  -20.1433   11.3447   22.6932 C   0  0  0  0  0  0  0  0  0  0  0  0
  -19.3552   12.1841   21.8936 C   0  0  0  0  0  0  0  0  0  0  0  0
  -18.9143   13.4048   22.3706 C   0  0  0  0  0  0  0  0  0  0  0  0
  -19.2656   13.7815   23.6515 C   0  0  0  0  0  0  0  0  0  0  0  0
  -20.0521   12.9417   24.4464 C   0  0  0  0  0  0  0  0  0  0  0  0
  -18.0962   14.2738   21.5388 C   0  0  0  0  0  0  0  0  0  0  0  0
  -17.4541   14.9716   20.8671 N   0  0  0  0  0  0  0  0  0  0  0  0
 13 14  1  0
 14 12  1  0
 12  2  1  0
  2  3  2  0
  3  4  1  0
  4  5  1  0
  5  6  2  0
  6  7  1  0
  7  8  2  0
  8  1  1  0
  1 18  1  0
 18 19  1  0
 19 20  2  0
 19 21  1  0
 21 22  1  0
 22 23  1  0
 23 24  1  0
 24 25  1  0
 25 26  1  0
 24 27  1  0
 27 28  2  0
 28 29  1  0
 29 30  2  0
 30 31  1  0
 31 32  2  0
 30 33  1  0
 33 34  3  0
  8  9  1  0
  9 10  2  0
 10  2  1  0
 10  5  1  0
 26 21  1  0
 32 27  1  0
 13 15  1  0
 13 16  1  0
 13 17  1  0
  4 11  1  0
M  CHG 1  13   1
M  END
> <minimizedAffinity>
-8.90397

> <CNNscore>
0.7557693124

> <CNNaffinity>
7.3687834740

> <CNN_VS>
5.5691003799

> <CNNaffinity_variance>
0.2013656199

$$$$



 34 37  0  0  0  0  0  0  0  0999 V2000
  -24.1419    5.7706   24.3021 O   0  0  0  0  0  0  0  0  0  0  0  0
  -21.4386    7.2050   20.3723 C   0  0  0  0  0  0  0  0  0  0  0  0
  -20.5481    6.4193   19.6341 C   0  0  0  0  0  0  0  0  0  0  0  0
  -20.5448    5.1748   20.1812 N   0  0  0  0  0  0  0  0  0  0  0  0
  -21.3942    5.1752   21.2174 C   0  0  0  0  0  0  0  0  0  0  0  0
  -21.7293    4.1356   22.0859 C   0  0  0  0  0  0  0  0  0  0  0  0
  -22.6407    4.3818   23.0877 C   0  0  0  0  0  0  0  0  0  0  0  0
  -23.2258    5.6155   23.2547 C   0  0  0  0  0  0  0  0  0  0  0  0
  -22.8967    6.6447   22.3983 C   0  0  0  0  0  0  0  0  0  0  0  0
  -21.9756    6.4081   21.3806 C   0  0  0  0  0  0  0  0  0  0  0  0
  -19.9505    4.3978   19.7998 H   0  0  0  0  0  0  0  0  0  0  0  0
  -21.7655    8.6306   20.1406 C   0  0  0  0  0  0  0  0  0  0  0  0
  -21.6604    9.3082   17.8221 N   0  0  0  0  0  0  0  0  0  0  0  0
  -20.8920    9.2175   19.0420 C   0  0  0  0  0  0  0  0  0  0  0  0
  -22.1008    8.3939   17.6240 H   0  0  0  0  0  0  0  0  0  0  0  0
  -20.9982    9.6236   17.0535 H   0  0  0  0  0  0  0  0  0  0  0  0
  -22.3544   10.0886   17.9446 H   0  0  0  0  0  0  0  0  0  0  0  0
  -23.7285    5.6171   25.6128 C   0  0  0  0  0  0  0  0  0  0  0  0
  -23.3180    6.8650   26.2580 C   0  0  0  0  0  0  0  0  0  0  0  0
  -22.9910    6.7181   27.5110 O   0  0  0  0  0  0  0  0  0  0  0  0
  -23.2201    8.1536   25.7549 N   0  0  0  0  0  0  0  0  0  0  0  0
  -23.4620    8.6050   24.4022 C   0  0  0  0  0  0  0  0  0  0  0  0
  -22.4917    9.7435   24.0489 C   0  0  0  0  0  0  0  0  0  0  0  0
  -22.7477   10.8345   24.9706 N   0  0  0  0  0  0  0  0  0  0  0  0
  -23.4472   10.5019   26.1955 C   0  0  0  0  0  0  0  0  0  0  0  0
  -22.8142    9.2222   26.6971 C   0  0  0  0  0  0  0  0  0  0  0  0
  -22.3067   12.1387   24.6351 C   0  0  0  0  0  0  0  0  0  0  0  0
  -22.4785   13.1337   25.5804 C   0  0  0  0  0  0  0  0  0  0  0  0
  -22.0639   14.4460   25.3141 C   0  0  0  0  0  0  0  0  0  0  0  0
  -21.4772   14.7701   24.1047 C   0  0  0  0  0  0  0  0  0  0  0  0
  -21.3072   13.7748   23.1631 C   0  0  0  0  0  0  0  0  0  0  0  0
  -21.7218   12.4667   23.4322 C   0  0  0  0  0  0  0  0  0  0  0  0
  -21.0483   16.1329   23.8307 C   0  0  0  0  0  0  0  0  0  0  0  0
  -20.6924   17.2175   23.6125 N   0  0  0  0  0  0  0  0  0  0  0  0
 13 14  1  0
 14 12  1  0
 12  2  1  0
  2  3  2  0
  3  4  1  0
  4  5  1  0
  5  6  2  0
  6  7  1  0
  7  8  2  0
  8  1  1  0
  1 18  1  0
 18 19  1  0
 19 20  2  0
 19 21  1  0
 21 22  1  0
 22 23  1  0
 23 24  1  0
 24 25  1  0
 25 26  1  0
 24 27  1  0
 27 28  2  0
 28 29  1  0
 29 30  2  0
 30 31  1  0
 31 32  2  0
 30 33  1  0
 33 34  3  0
  8  9  1  0
  9 10  2  0
 10  2  1  0
 10  5  1  0
 26 21  1  0
 32 27  1  0
 13 15  1  0
 13 16  1  0
 13 17  1  0
  4 11  1  0
M  CHG 1  13   1
M  END
> <minimizedAffinity>
-9.09534

> <CNNscore>
0.7477416396

> <CNNaffinity>
7.2688436508

> <CNN_VS>
5.4352169037

> <CNNaffinity_variance>
0.1119664535

$$$$



 34 37  0  0  0  0  0  0  0  0999 V2000
  -23.4883    9.2036   24.9361 O   0  0  0  0  0  0  0  0  0  0  0  0
  -22.9201    4.5377   23.2881 C   0  0  0  0  0  0  0  0  0  0  0  0
  -23.5582    3.3923   23.7739 C   0  0  0  0  0  0  0  0  0  0  0  0
  -24.3745    3.7750   24.7913 N   0  0  0  0  0  0  0  0  0  0  0  0
  -24.2569    5.1012   24.9409 C   0  0  0  0  0  0  0  0  0  0  0  0
  -24.8925    5.9480   25.8499 C   0  0  0  0  0  0  0  0  0  0  0  0
  -24.6055    7.2937   25.8086 C   0  0  0  0  0  0  0  0  0  0  0  0
  -23.7160    7.8225   24.9024 C   0  0  0  0  0  0  0  0  0  0  0  0
  -23.0863    6.9884   24.0030 C   0  0  0  0  0  0  0  0  0  0  0  0
  -23.3682    5.6248   24.0349 C   0  0  0  0  0  0  0  0  0  0  0  0
  -24.9664    3.0888   25.3219 H   0  0  0  0  0  0  0  0  0  0  0  0
  -21.9400    4.6045   22.1800 C   0  0  0  0  0  0  0  0  0  0  0  0
  -21.1732    5.8941   20.2841 N   0  0  0  0  0  0  0  0  0  0  0  0
  -22.0716    5.9129   21.4152 C   0  0  0  0  0  0  0  0  0  0  0  0
  -20.2235    5.6383   20.6031 H   0  0  0  0  0  0  0  0  0  0  0  0
  -21.2130    6.8547   19.8321 H   0  0  0  0  0  0  0  0  0  0  0  0
  -21.5711    5.2248   19.5774 H   0  0  0  0  0  0  0  0  0  0  0  0
  -22.2256    9.6910   25.2193 C   0  0  0  0  0  0  0  0  0  0  0  0
  -21.7397   10.6813   24.2574 C   0  0  0  0  0  0  0  0  0  0  0  0
  -21.2717   11.7615   24.8166 O   0  0  0  0  0  0  0  0  0  0  0  0
  -21.6958   10.6504   22.8717 N   0  0  0  0  0  0  0  0  0  0  0  0
  -22.0897    9.5740   21.9895 C   0  0  0  0  0  0  0  0  0  0  0  0
  -21.1626    9.5357   20.7641 C   0  0  0  0  0  0  0  0  0  0  0  0
  -21.3075   10.8012   20.0695 N   0  0  0  0  0  0  0  0  0  0  0  0
  -21.8632   11.9023   20.8308 C   0  0  0  0  0  0  0  0  0  0  0  0
  -21.1811   11.8554   22.1808 C   0  0  0  0  0  0  0  0  0  0  0  0
  -20.9036   10.8946   18.7145 C   0  0  0  0  0  0  0  0  0  0  0  0
  -20.4844   12.1307   18.2569 C   0  0  0  0  0  0  0  0  0  0  0  0
  -20.0705   12.2933   16.9276 C   0  0  0  0  0  0  0  0  0  0  0  0
  -20.0735   11.2242   16.0506 C   0  0  0  0  0  0  0  0  0  0  0  0
  -20.4927    9.9916   16.5103 C   0  0  0  0  0  0  0  0  0  0  0  0
  -20.9048    9.8330   17.8372 C   0  0  0  0  0  0  0  0  0  0  0  0
  -19.6440   11.3957   14.6714 C   0  0  0  0  0  0  0  0  0  0  0  0
  -19.2926   11.5215   13.5709 N   0  0  0  0  0  0  0  0  0  0  0  0
 13 14  1  0
 14 12  1  0
 12  2  1  0
  2  3  2  0
  3  4  1  0
  4  5  1  0
  5  6  2  0
  6  7  1  0
  7  8  2  0
  8  1  1  0
  1 18  1  0
 18 19  1  0
 19 20  2  0
 19 21  1  0
 21 22  1  0
 22 23  1  0
 23 24  1  0
 24 25  1  0
 25 26  1  0
 24 27  1  0
 27 28  2  0
 28 29  1  0
 29 30  2  0
 30 31  1  0
 31 32  2  0
 30 33  1  0
 33 34  3  0
  8  9  1  0
  9 10  2  0
 10  2  1  0
 10  5  1  0
 26 21  1  0
 32 27  1  0
 13 15  1  0
 13 16  1  0
 13 17  1  0
  4 11  1  0
M  CHG 1  13   1
M  END
> <minimizedAffinity>
-10.10424

> <CNNscore>
0.6523094773

> <CNNaffinity>
6.9687104225

> <CNN_VS>
4.5457558632

> <CNNaffinity_variance>
0.0595212989

$$$$



 34 37  0  0  0  0  0  0  0  0999 V2000
  -23.6094    3.5000   22.5948 O   0  0  0  0  0  0  0  0  0  0  0  0
  -20.5521    6.3125   19.8466 C   0  0  0  0  0  0  0  0  0  0  0  0
  -20.7161    7.6635   19.5253 C   0  0  0  0  0  0  0  0  0  0  0  0
  -21.8729    8.0868   20.1003 N   0  0  0  0  0  0  0  0  0  0  0  0
  -22.4143    7.0504   20.7544 C   0  0  0  0  0  0  0  0  0  0  0  0
  -23.5956    6.9923   21.4950 C   0  0  0  0  0  0  0  0  0  0  0  0
  -23.9468    5.7981   22.0829 C   0  0  0  0  0  0  0  0  0  0  0  0
  -23.1708    4.6689   21.9610 C   0  0  0  0  0  0  0  0  0  0  0  0
  -22.0031    4.7230   21.2298 C   0  0  0  0  0  0  0  0  0  0  0  0
  -21.6369    5.9257   20.6300 C   0  0  0  0  0  0  0  0  0  0  0  0
  -22.2172    9.0740   20.0033 H   0  0  0  0  0  0  0  0  0  0  0  0
  -19.4336    5.4328   19.4368 C   0  0  0  0  0  0  0  0  0  0  0  0
  -17.3514    4.5153   20.2543 N   0  0  0  0  0  0  0  0  0  0  0  0
  -18.6855    4.9026   20.6507 C   0  0  0  0  0  0  0  0  0  0  0  0
  -17.4045    3.8886   19.4336 H   0  0  0  0  0  0  0  0  0  0  0  0
  -16.8915    4.0574   21.0954 H   0  0  0  0  0  0  0  0  0  0  0  0
  -16.8088    5.3974   20.0721 H   0  0  0  0  0  0  0  0  0  0  0  0
  -23.3824    3.3178   23.9466 C   0  0  0  0  0  0  0  0  0  0  0  0
  -24.0706    4.2855   24.8021 C   0  0  0  0  0  0  0  0  0  0  0  0
  -25.1185    3.7947   25.4018 O   0  0  0  0  0  0  0  0  0  0  0  0
  -23.7867    5.6155   25.0733 N   0  0  0  0  0  0  0  0  0  0  0  0
  -22.6706    6.4048   24.6006 C   0  0  0  0  0  0  0  0  0  0  0  0
  -22.2331    7.3975   25.6894 C   0  0  0  0  0  0  0  0  0  0  0  0
  -23.3589    8.2728   25.9574 N   0  0  0  0  0  0  0  0  0  0  0  0
  -24.6652    7.7984   25.5461 C   0  0  0  0  0  0  0  0  0  0  0  0
  -24.7242    6.3438   25.9592 C   0  0  0  0  0  0  0  0  0  0  0  0
  -23.1290    9.5163   26.5968 C   0  0  0  0  0  0  0  0  0  0  0  0
  -21.8156    9.8775   26.8370 C   0  0  0  0  0  0  0  0  0  0  0  0
  -21.5170   11.0946   27.4650 C   0  0  0  0  0  0  0  0  0  0  0  0
  -22.5268   11.9549   27.8554 C   0  0  0  0  0  0  0  0  0  0  0  0
  -23.8367   11.5914   27.6144 C   0  0  0  0  0  0  0  0  0  0  0  0
  -24.1309   10.3765   26.9875 C   0  0  0  0  0  0  0  0  0  0  0  0
  -22.2141   13.2172   28.5074 C   0  0  0  0  0  0  0  0  0  0  0  0
  -21.9510   14.2217   29.0292 N   0  0  0  0  0  0  0  0  0  0  0  0
 13 14  1  0
 14 12  1  0
 12  2  1  0
  2  3  2  0
  3  4  1  0
  4  5  1  0
  5  6  2  0
  6  7  1  0
  7  8  2  0
  8  1  1  0
  1 18  1  0
 18 19  1  0
 19 20  2  0
 19 21  1  0
 21 22  1  0
 22 23  1  0
 23 24  1  0
 24 25  1  0
 25 26  1  0
 24 27  1  0
 27 28  2  0
 28 29  1  0
 29 30  2  0
 30 31  1  0
 31 32  2  0
 30 33  1  0
 33 34  3  0
  8  9  1  0
  9 10  2  0
 10  2  1  0
 10  5  1  0
 26 21  1  0
 32 27  1  0
 13 15  1  0
 13 16  1  0
 13 17  1  0
  4 11  1  0
M  CHG 1  13   1
M  END
> <minimizedAffinity>
-4.00130

> <CNNscore>
0.6229301095

> <CNNaffinity>
7.3421540260

> <CNN_VS>
4.5736489296

> <CNNaffinity_variance>
0.7205983400

$$$$



 34 37  0  0  0  0  0  0  0  0999 V2000
  -23.7369    9.6152   24.7541 O   0  0  0  0  0  0  0  0  0  0  0  0
  -23.7963    4.7339   23.7650 C   0  0  0  0  0  0  0  0  0  0  0  0
  -23.4896    4.1205   22.5464 C   0  0  0  0  0  0  0  0  0  0  0  0
  -23.1670    5.1003   21.6610 N   0  0  0  0  0  0  0  0  0  0  0  0
  -23.2658    6.2781   22.2919 C   0  0  0  0  0  0  0  0  0  0  0  0
  -23.0351    7.5647   21.8031 C   0  0  0  0  0  0  0  0  0  0  0  0
  -23.2041    8.6332   22.6544 C   0  0  0  0  0  0  0  0  0  0  0  0
  -23.5913    8.4685   23.9639 C   0  0  0  0  0  0  0  0  0  0  0  0
  -23.8201    7.1986   24.4499 C   0  0  0  0  0  0  0  0  0  0  0  0
  -23.6525    6.1093   23.5983 C   0  0  0  0  0  0  0  0  0  0  0  0
  -22.8964    4.8903   20.6685 H   0  0  0  0  0  0  0  0  0  0  0  0
  -24.2038    4.0603   25.0192 C   0  0  0  0  0  0  0  0  0  0  0  0
  -25.3568    5.1385   26.8506 N   0  0  0  0  0  0  0  0  0  0  0  0
  -24.0699    4.9987   26.2091 C   0  0  0  0  0  0  0  0  0  0  0  0
  -26.0687    5.3871   26.1433 H   0  0  0  0  0  0  0  0  0  0  0  0
  -25.2537    5.8741   27.6101 H   0  0  0  0  0  0  0  0  0  0  0  0
  -25.5599    4.2348   27.3485 H   0  0  0  0  0  0  0  0  0  0  0  0
  -23.0334    9.7345   25.9386 C   0  0  0  0  0  0  0  0  0  0  0  0
  -21.7710   10.4638   25.8109 C   0  0  0  0  0  0  0  0  0  0  0  0
  -21.0209   10.3927   26.8743 O   0  0  0  0  0  0  0  0  0  0  0  0
  -21.2550   11.2007   24.7555 N   0  0  0  0  0  0  0  0  0  0  0  0
  -21.8308   11.4075   23.4449 C   0  0  0  0  0  0  0  0  0  0  0  0
  -20.7165   11.4752   22.3883 C   0  0  0  0  0  0  0  0  0  0  0  0
  -19.8688   12.6043   22.7223 N   0  0  0  0  0  0  0  0  0  0  0  0
  -19.9456   13.0964   24.0834 C   0  0  0  0  0  0  0  0  0  0  0  0
  -19.9492   11.8675   24.9663 C   0  0  0  0  0  0  0  0  0  0  0  0
  -19.0255   13.1528   21.7243 C   0  0  0  0  0  0  0  0  0  0  0  0
  -18.4590   14.3892   21.9759 C   0  0  0  0  0  0  0  0  0  0  0  0
  -17.6142   14.9891   21.0318 C   0  0  0  0  0  0  0  0  0  0  0  0
  -17.3319   14.3581   19.8342 C   0  0  0  0  0  0  0  0  0  0  0  0
  -17.8990   13.1240   19.5859 C   0  0  0  0  0  0  0  0  0  0  0  0
  -18.7412   12.5285   20.5301 C   0  0  0  0  0  0  0  0  0  0  0  0
  -16.4551   14.9830   18.8559 C   0  0  0  0  0  0  0  0  0  0  0  0
  -15.7560   15.4944   18.0811 N   0  0  0  0  0  0  0  0  0  0  0  0
 13 14  1  0
 14 12  1  0
 12  2  1  0
  2  3  2  0
  3  4  1  0
  4  5  1  0
  5  6  2  0
  6  7  1  0
  7  8  2  0
  8  1  1  0
  1 18  1  0
 18 19  1  0
 19 20  2  0
 19 21  1  0
 21 22  1  0
 22 23  1  0
 23 24  1  0
 24 25  1  0
 25 26  1  0
 24 27  1  0
 27 28  2  0
 28 29  1  0
 29 30  2  0
 30 31  1  0
 31 32  2  0
 30 33  1  0
 33 34  3  0
  8  9  1  0
  9 10  2  0
 10  2  1  0
 10  5  1  0
 26 21  1  0
 32 27  1  0
 13 15  1  0
 13 16  1  0
 13 17  1  0
  4 11  1  0
M  CHG 1  13   1
M  END
> <minimizedAffinity>
-9.23756

> <CNNscore>
0.5768350363

> <CNNaffinity>
6.4784064293

> <CNN_VS>
3.7369718552

> <CNNaffinity_variance>
0.0125371935

$$$$



 34 37  0  0  0  0  0  0  0  0999 V2000
  -23.8093    3.9451   22.1016 O   0  0  0  0  0  0  0  0  0  0  0  0
  -22.0043    8.2976   20.4873 C   0  0  0  0  0  0  0  0  0  0  0  0
  -20.7716    8.5160   19.8643 C   0  0  0  0  0  0  0  0  0  0  0  0
  -20.1375    7.3170   19.7727 N   0  0  0  0  0  0  0  0  0  0  0  0
  -20.9335    6.3847   20.3132 C   0  0  0  0  0  0  0  0  0  0  0  0
  -20.7203    5.0125   20.4511 C   0  0  0  0  0  0  0  0  0  0  0  0
  -21.6990    4.2502   21.0480 C   0  0  0  0  0  0  0  0  0  0  0  0
  -22.8725    4.8002   21.5087 C   0  0  0  0  0  0  0  0  0  0  0  0
  -23.0861    6.1557   21.3741 C   0  0  0  0  0  0  0  0  0  0  0  0
  -22.1033    6.9377   20.7719 C   0  0  0  0  0  0  0  0  0  0  0  0
  -19.1867    7.2189   19.3381 H   0  0  0  0  0  0  0  0  0  0  0  0
  -23.0335    9.3158   20.7985 C   0  0  0  0  0  0  0  0  0  0  0  0
  -25.3827    8.9474   20.3611 N   0  0  0  0  0  0  0  0  0  0  0  0
  -24.3151    8.6610   21.2914 C   0  0  0  0  0  0  0  0  0  0  0  0
  -25.4216    9.9655   20.1847 H   0  0  0  0  0  0  0  0  0  0  0  0
  -26.2803    8.5659   20.7821 H   0  0  0  0  0  0  0  0  0  0  0  0
  -25.2053    8.3795   19.4941 H   0  0  0  0  0  0  0  0  0  0  0  0
  -23.5000    3.2870   23.2778 C   0  0  0  0  0  0  0  0  0  0  0  0
  -23.9010    4.0077   24.4869 C   0  0  0  0  0  0  0  0  0  0  0  0
  -24.3044    3.2249   25.4477 O   0  0  0  0  0  0  0  0  0  0  0  0
  -23.9151    5.3656   24.7676 N   0  0  0  0  0  0  0  0  0  0  0  0
  -23.4775    6.4564   23.9244 C   0  0  0  0  0  0  0  0  0  0  0  0
  -22.8538    7.5661   24.7859 C   0  0  0  0  0  0  0  0  0  0  0  0
  -23.8822    8.0436   25.6911 N   0  0  0  0  0  0  0  0  0  0  0  0
  -25.0148    7.1665   25.9112 C   0  0  0  0  0  0  0  0  0  0  0  0
  -24.4339    5.7808   26.0914 C   0  0  0  0  0  0  0  0  0  0  0  0
  -23.7278    9.3125   26.3028 C   0  0  0  0  0  0  0  0  0  0  0  0
  -24.8461    9.8807   26.8855 C   0  0  0  0  0  0  0  0  0  0  0  0
  -24.7635   11.1336   27.5087 C   0  0  0  0  0  0  0  0  0  0  0  0
  -23.5660   11.8235   27.5528 C   0  0  0  0  0  0  0  0  0  0  0  0
  -22.4515   11.2537   26.9702 C   0  0  0  0  0  0  0  0  0  0  0  0
  -22.5375   10.0036   26.3494 C   0  0  0  0  0  0  0  0  0  0  0  0
  -23.4831   13.1238   28.1998 C   0  0  0  0  0  0  0  0  0  0  0  0
  -23.4254   14.1579   28.7268 N   0  0  0  0  0  0  0  0  0  0  0  0
 13 14  1  0
 14 12  1  0
 12  2  1  0
  2  3  2  0
  3  4  1  0
  4  5  1  0
  5  6  2  0
  6  7  1  0
  7  8  2  0
  8  1  1  0
  1 18  1  0
 18 19  1  0
 19 20  2  0
 19 21  1  0
 21 22  1  0
 22 23  1  0
 23 24  1  0
 24 25  1  0
 25 26  1  0
 24 27  1  0
 27 28  2  0
 28 29  1  0
 29 30  2  0
 30 31  1  0
 31 32  2  0
 30 33  1  0
 33 34  3  0
  8  9  1  0
  9 10  2  0
 10  2  1  0
 10  5  1  0
 26 21  1  0
 32 27  1  0
 13 15  1  0
 13 16  1  0
 13 17  1  0
  4 11  1  0
M  CHG 1  13   1
M  END
> <minimizedAffinity>
-5.25422

> <CNNscore>
0.5689870119

> <CNNaffinity>
7.2144165039

> <CNN_VS>
4.1049094200

> <CNNaffinity_variance>
0.4024405479

$$$$



 34 37  0  0  0  0  0  0  0  0999 V2000
  -24.6301    9.2228   25.6684 O   0  0  0  0  0  0  0  0  0  0  0  0
  -22.9995    4.9290   23.7415 C   0  0  0  0  0  0  0  0  0  0  0  0
  -23.4693    3.6451   24.0350 C   0  0  0  0  0  0  0  0  0  0  0  0
  -24.4644    3.7697   24.9528 N   0  0  0  0  0  0  0  0  0  0  0  0
  -24.6157    5.0726   25.2260 C   0  0  0  0  0  0  0  0  0  0  0  0
  -25.5074    5.6946   26.1009 C   0  0  0  0  0  0  0  0  0  0  0  0
  -25.4732    7.0663   26.2118 C   0  0  0  0  0  0  0  0  0  0  0  0
  -24.5905    7.8348   25.4891 C   0  0  0  0  0  0  0  0  0  0  0  0
  -23.7081    7.2233   24.6239 C   0  0  0  0  0  0  0  0  0  0  0  0
  -23.7329    5.8359   24.5029 C   0  0  0  0  0  0  0  0  0  0  0  0
  -24.9803    2.9388   25.3348 H   0  0  0  0  0  0  0  0  0  0  0  0
  -21.9171    5.2824   22.7948 C   0  0  0  0  0  0  0  0  0  0  0  0
  -23.8384    5.8286   21.4325 N   0  0  0  0  0  0  0  0  0  0  0  0
  -22.4473    6.1453   21.6596 C   0  0  0  0  0  0  0  0  0  0  0  0
  -23.9455    4.8059   21.3250 H   0  0  0  0  0  0  0  0  0  0  0  0
  -24.1501    6.3698   20.5731 H   0  0  0  0  0  0  0  0  0  0  0  0
  -24.3866    6.2239   22.2381 H   0  0  0  0  0  0  0  0  0  0  0  0
  -23.7849    9.8282   26.5802 C   0  0  0  0  0  0  0  0  0  0  0  0
  -23.4554   11.2169   26.2563 C   0  0  0  0  0  0  0  0  0  0  0  0
  -24.2068   12.0856   26.8721 O   0  0  0  0  0  0  0  0  0  0  0  0
  -22.4856   11.7441   25.4169 N   0  0  0  0  0  0  0  0  0  0  0  0
  -21.4831   11.0338   24.6536 C   0  0  0  0  0  0  0  0  0  0  0  0
  -20.1874   11.8586   24.5959 C   0  0  0  0  0  0  0  0  0  0  0  0
  -20.4980   13.1101   23.9306 N   0  0  0  0  0  0  0  0  0  0  0  0
  -21.8947   13.4943   23.8846 C   0  0  0  0  0  0  0  0  0  0  0  0
  -22.4440   13.2172   25.2671 C   0  0  0  0  0  0  0  0  0  0  0  0
  -19.4431   13.8770   23.3763 C   0  0  0  0  0  0  0  0  0  0  0  0
  -18.8811   14.8589   24.1721 C   0  0  0  0  0  0  0  0  0  0  0  0
  -17.8333   15.6534   23.6866 C   0  0  0  0  0  0  0  0  0  0  0  0
  -17.3429   15.4714   22.4066 C   0  0  0  0  0  0  0  0  0  0  0  0
  -17.9060   14.4906   21.6147 C   0  0  0  0  0  0  0  0  0  0  0  0
  -18.9511   13.6997   22.1023 C   0  0  0  0  0  0  0  0  0  0  0  0
  -16.2557   16.2977   21.9050 C   0  0  0  0  0  0  0  0  0  0  0  0
  -15.3890   16.9522   21.4917 N   0  0  0  0  0  0  0  0  0  0  0  0
 13 14  1  0
 14 12  1  0
 12  2  1  0
  2  3  2  0
  3  4  1  0
  4  5  1  0
  5  6  2  0
  6  7  1  0
  7  8  2  0
  8  1  1  0
  1 18  1  0
 18 19  1  0
 19 20  2  0
 19 21  1  0
 21 22  1  0
 22 23  1  0
 23 24  1  0
 24 25  1  0
 25 26  1  0
 24 27  1  0
 27 28  2  0
 28 29  1  0
 29 30  2  0
 30 31  1  0
 31 32  2  0
 30 33  1  0
 33 34  3  0
  8  9  1  0
  9 10  2  0
 10  2  1  0
 10  5  1  0
 26 21  1  0
 32 27  1  0
 13 15  1  0
 13 16  1  0
 13 17  1  0
  4 11  1  0
M  CHG 1  13   1
M  END
> <minimizedAffinity>
-8.49321

> <CNNscore>
0.5216543674

> <CNNaffinity>
6.3725810051

> <CNN_VS>
3.3242847919

> <CNNaffinity_variance>
0.0845831260

$$$$
