


 46 53  0  0  0  0  0  0  0  0999 V2000
  -22.8119    9.4952   23.5528 C   0  0  0  0  0  0  0  0  0  0  0  0
  -21.5320   10.2718   23.7534 C   0  0  0  0  0  0  0  0  0  0  0  0
  -23.1701    9.6422   22.2289 O   0  0  0  0  0  0  0  0  0  0  0  0
  -22.8001    8.5239   21.5188 C   0  0  0  0  0  0  0  0  0  0  0  0
  -23.9345    8.0619   20.8507 O   0  0  0  0  0  0  0  0  0  0  0  0
  -21.8177    8.9479   20.4756 C   0  0  0  0  0  0  0  0  0  0  0  0
  -22.4432    9.0569   19.0823 C   0  0  0  0  0  0  0  0  0  0  0  0
  -21.2277    8.9690   18.1739 C   0  0  0  0  0  0  0  0  0  0  0  0
  -20.0850    8.4469   19.0173 C   0  0  0  0  0  0  0  0  0  0  0  0
  -20.7772    7.9749   20.2025 N   0  0  0  0  0  0  0  0  0  0  0  0
  -20.5634    6.8186   21.0035 C   0  0  0  0  0  0  0  0  0  0  0  0
  -19.4813    6.1756   20.9633 O   0  0  0  0  0  0  0  0  0  0  0  0
  -21.6508    6.3660   21.9076 C   0  0  0  0  0  0  0  0  0  0  0  0
  -22.2722    7.5429   22.4354 N   0  0  0  0  0  0  0  0  0  0  0  0
  -22.5317    8.0491   23.7532 C   0  0  0  0  0  0  0  0  0  0  0  0
  -22.5134    7.3738   24.8141 O   0  0  0  0  0  0  0  0  0  0  0  0
  -24.7440    8.1778   21.4114 H   0  0  0  0  0  0  0  0  0  0  0  0
  -25.1981   10.2007   23.9288 C   0  0  0  0  0  0  0  0  0  0  0  0
  -25.5464    9.9636   22.7435 O   0  0  0  0  0  0  0  0  0  0  0  0
  -23.8791    9.9936   24.3875 N   0  0  0  0  0  0  0  0  0  0  0  0
  -23.7026   10.2294   25.4096 H   0  0  0  0  0  0  0  0  0  0  0  0
  -27.6260    8.2435   26.8788 C   0  0  0  0  0  0  0  0  0  0  0  0
  -27.8012    9.5842   26.3973 N   0  0  0  0  0  0  0  0  0  0  0  0
  -27.3946    9.7986   25.0568 C   0  0  0  0  0  0  0  0  0  0  0  0
  -26.2464   10.7194   24.8556 C   0  0  0  0  0  0  0  0  0  0  0  0
  -25.6294   11.2474   26.1355 C   0  0  0  0  0  0  0  0  0  0  0  0
  -26.7902   11.7846   26.9140 C   0  0  0  0  0  0  0  0  0  0  0  0
  -27.6082   10.6016   27.3510 C   0  0  0  0  0  0  0  0  0  0  0  0
  -28.8837   11.0988   28.0228 C   0  0  0  0  0  0  0  0  0  0  0  0
  -28.4984   11.9046   29.2076 C   0  0  0  0  0  0  0  0  0  0  0  0
  -29.0389   12.1922   30.4435 C   0  0  0  0  0  0  0  0  0  0  0  0
  -28.1785   13.0221   31.1074 N   0  0  0  0  0  0  0  0  0  0  0  0
  -27.1056   13.2736   30.3350 C   0  0  0  0  0  0  0  0  0  0  0  0
  -25.9444   14.0083   30.4438 C   0  0  0  0  0  0  0  0  0  0  0  0
  -25.0260   14.0316   29.3900 C   0  0  0  0  0  0  0  0  0  0  0  0
  -25.2654   13.3163   28.2155 C   0  0  0  0  0  0  0  0  0  0  0  0
  -26.4365   12.5740   28.1027 C   0  0  0  0  0  0  0  0  0  0  0  0
  -27.3048   12.5842   29.1649 C   0  0  0  0  0  0  0  0  0  0  0  0
  -28.2963   13.4240   32.0701 H   0  0  0  0  0  0  0  0  0  0  0  0
  -22.6149    5.4425   21.1984 C   0  0  0  0  0  0  0  0  0  0  0  0
  -22.9103    4.3336   22.1711 C   0  0  0  0  0  0  0  0  0  0  0  0
  -23.8772    4.6138   23.1251 C   0  0  0  0  0  0  0  0  0  0  0  0
  -24.2235    3.6599   24.0675 C   0  0  0  0  0  0  0  0  0  0  0  0
  -23.5814    2.4278   24.0297 C   0  0  0  0  0  0  0  0  0  0  0  0
  -22.6198    2.1800   23.0634 C   0  0  0  0  0  0  0  0  0  0  0  0
  -22.2616    3.1202   22.1152 C   0  0  0  0  0  0  0  0  0  0  0  0
 22 23  1  0
 23 24  1  0
 24 25  1  0
 25 26  1  0
 26 27  1  0
 27 28  1  0
 28 29  1  0
 29 30  1  0
 30 31  2  0
 31 32  1  0
 32 33  1  0
 33 34  2  0
 34 35  1  0
 35 36  2  0
 36 37  1  0
 37 38  2  0
 25 18  1  0
 18 19  2  0
 18 20  1  0
  1 20  1  0
  1  2  1  0
  1  3  1  0
  3  4  1  0
  4  5  1  0
  4  6  1  0
  6  7  1  0
  7  8  1  0
  8  9  1  0
  9 10  1  0
 10 11  1  0
 11 12  2  0
 11 13  1  0
 13 40  1  0
 40 41  1  0
 41 42  2  0
 42 43  1  0
 43 44  2  0
 44 45  1  0
 45 46  2  0
 13 14  1  0
 14 15  1  0
 15 16  2  0
 28 23  1  0
 37 27  1  0
 38 30  1  0
 38 33  1  0
 15  1  1  0
 14  4  1  0
 10  6  1  0
 46 41  1  0
 32 39  1  0
 20 21  1  0
  5 17  1  0
M  END
> <minimizedAffinity>
14.11030

> <CNNscore>
0.4452205598

> <CNNaffinity>
6.9591093063

> <CNN_VS>
3.0983386040

> <CNNaffinity_variance>
1.1665517092

$$$$



 46 53  0  0  0  0  0  0  0  0999 V2000
  -24.0475    9.6265   26.1660 C   0  0  0  0  0  0  0  0  0  0  0  0
  -25.5535    9.5377   26.0917 C   0  0  0  0  0  0  0  0  0  0  0  0
  -23.6312    8.6747   27.0735 O   0  0  0  0  0  0  0  0  0  0  0  0
  -23.1758    7.5617   26.4058 C   0  0  0  0  0  0  0  0  0  0  0  0
  -21.8918    7.2898   26.8792 O   0  0  0  0  0  0  0  0  0  0  0  0
  -24.0416    6.4077   26.7953 C   0  0  0  0  0  0  0  0  0  0  0  0
  -23.3772    5.4900   27.8254 C   0  0  0  0  0  0  0  0  0  0  0  0
  -24.1594    4.1974   27.6596 C   0  0  0  0  0  0  0  0  0  0  0  0
  -24.9156    4.3053   26.3534 C   0  0  0  0  0  0  0  0  0  0  0  0
  -24.2787    5.4512   25.7309 N   0  0  0  0  0  0  0  0  0  0  0  0
  -23.9181    5.6900   24.3755 C   0  0  0  0  0  0  0  0  0  0  0  0
  -24.4147    5.0224   23.4302 O   0  0  0  0  0  0  0  0  0  0  0  0
  -22.9292    6.7570   24.0777 C   0  0  0  0  0  0  0  0  0  0  0  0
  -23.1866    7.8311   24.9885 N   0  0  0  0  0  0  0  0  0  0  0  0
  -23.4783    9.2298   24.8514 C   0  0  0  0  0  0  0  0  0  0  0  0
  -23.2769    9.9225   23.8210 O   0  0  0  0  0  0  0  0  0  0  0  0
  -21.3965    8.1307   27.0543 H   0  0  0  0  0  0  0  0  0  0  0  0
  -22.4988   11.6075   26.0641 C   0  0  0  0  0  0  0  0  0  0  0  0
  -21.8027   11.1255   25.1338 O   0  0  0  0  0  0  0  0  0  0  0  0
  -23.6074   10.9270   26.6125 N   0  0  0  0  0  0  0  0  0  0  0  0
  -24.1199   11.4333   27.3952 H   0  0  0  0  0  0  0  0  0  0  0  0
  -20.1036   12.7889   29.4249 C   0  0  0  0  0  0  0  0  0  0  0  0
  -20.9202   13.6568   28.6250 N   0  0  0  0  0  0  0  0  0  0  0  0
  -22.0707   13.0494   28.0632 C   0  0  0  0  0  0  0  0  0  0  0  0
  -22.1072   12.9514   26.5814 C   0  0  0  0  0  0  0  0  0  0  0  0
  -20.8617   13.4619   25.8845 C   0  0  0  0  0  0  0  0  0  0  0  0
  -20.6466   14.8274   26.4603 C   0  0  0  0  0  0  0  0  0  0  0  0
  -20.2258   14.6370   27.8908 C   0  0  0  0  0  0  0  0  0  0  0  0
  -20.1357   15.9998   28.5691 C   0  0  0  0  0  0  0  0  0  0  0  0
  -19.1176   16.8067   27.8522 C   0  0  0  0  0  0  0  0  0  0  0  0
  -18.2252   17.8086   28.1719 C   0  0  0  0  0  0  0  0  0  0  0  0
  -17.5387   18.1513   27.0400 N   0  0  0  0  0  0  0  0  0  0  0  0
  -17.9640   17.4001   26.0078 C   0  0  0  0  0  0  0  0  0  0  0  0
  -17.6678   17.2828   24.6666 C   0  0  0  0  0  0  0  0  0  0  0  0
  -18.3462   16.3507   23.8758 C   0  0  0  0  0  0  0  0  0  0  0  0
  -19.3298   15.5265   24.4250 C   0  0  0  0  0  0  0  0  0  0  0  0
  -19.6310   15.6426   25.7782 C   0  0  0  0  0  0  0  0  0  0  0  0
  -18.9368   16.5724   26.5102 C   0  0  0  0  0  0  0  0  0  0  0  0
  -16.7890   18.8802   26.9456 H   0  0  0  0  0  0  0  0  0  0  0  0
  -21.5119    6.2358   24.1464 C   0  0  0  0  0  0  0  0  0  0  0  0
  -20.6853    7.3676   24.6933 C   0  0  0  0  0  0  0  0  0  0  0  0
  -20.7425    8.5535   23.9766 C   0  0  0  0  0  0  0  0  0  0  0  0
  -20.0184    9.6569   24.3961 C   0  0  0  0  0  0  0  0  0  0  0  0
  -19.2420    9.5427   25.5432 C   0  0  0  0  0  0  0  0  0  0  0  0
  -19.2069    8.3433   26.2363 C   0  0  0  0  0  0  0  0  0  0  0  0
  -19.9230    7.2319   25.8321 C   0  0  0  0  0  0  0  0  0  0  0  0
 22 23  1  0
 23 24  1  0
 24 25  1  0
 25 26  1  0
 26 27  1  0
 27 28  1  0
 28 29  1  0
 29 30  1  0
 30 31  2  0
 31 32  1  0
 32 33  1  0
 33 34  2  0
 34 35  1  0
 35 36  2  0
 36 37  1  0
 37 38  2  0
 25 18  1  0
 18 19  2  0
 18 20  1  0
  1 20  1  0
  1  2  1  0
  1  3  1  0
  3  4  1  0
  4  5  1  0
  4  6  1  0
  6  7  1  0
  7  8  1  0
  8  9  1  0
  9 10  1  0
 10 11  1  0
 11 12  2  0
 11 13  1  0
 13 40  1  0
 40 41  1  0
 41 42  2  0
 42 43  1  0
 43 44  2  0
 44 45  1  0
 45 46  2  0
 13 14  1  0
 14 15  1  0
 15 16  2  0
 28 23  1  0
 37 27  1  0
 38 30  1  0
 38 33  1  0
 15  1  1  0
 14  4  1  0
 10  6  1  0
 46 41  1  0
 32 39  1  0
 20 21  1  0
  5 17  1  0
M  END
> <minimizedAffinity>
6.04355

> <CNNscore>
0.3525550961

> <CNNaffinity>
6.3605947495

> <CNN_VS>
2.2424600124

> <CNNaffinity_variance>
0.8512865305

$$$$



 46 53  0  0  0  0  0  0  0  0999 V2000
  -22.6743    8.2554   24.3780 C   0  0  0  0  0  0  0  0  0  0  0  0
  -21.3603    8.9818   24.2136 C   0  0  0  0  0  0  0  0  0  0  0  0
  -23.0926    7.8867   23.1163 O   0  0  0  0  0  0  0  0  0  0  0  0
  -22.7967    6.5618   22.8956 C   0  0  0  0  0  0  0  0  0  0  0  0
  -23.9780    5.9324   22.5019 O   0  0  0  0  0  0  0  0  0  0  0  0
  -21.8533    6.4896   21.7390 C   0  0  0  0  0  0  0  0  0  0  0  0
  -22.5431    6.0722   20.4372 C   0  0  0  0  0  0  0  0  0  0  0  0
  -21.3779    5.5715   19.5994 C   0  0  0  0  0  0  0  0  0  0  0  0
  -20.2133    5.3666   20.5436 C   0  0  0  0  0  0  0  0  0  0  0  0
  -20.8615    5.4359   21.8403 N   0  0  0  0  0  0  0  0  0  0  0  0
  -20.6479    4.6797   23.0264 C   0  0  0  0  0  0  0  0  0  0  0  0
  -19.5918    4.0187   23.2094 O   0  0  0  0  0  0  0  0  0  0  0  0
  -21.7040    4.6763   24.0701 C   0  0  0  0  0  0  0  0  0  0  0  0
  -22.2578    5.9959   24.1084 N   0  0  0  0  0  0  0  0  0  0  0  0
  -22.4342    6.9931   25.1256 C   0  0  0  0  0  0  0  0  0  0  0  0
  -22.3864    6.7907   26.3661 O   0  0  0  0  0  0  0  0  0  0  0  0
  -24.7542    6.3010   22.9965 H   0  0  0  0  0  0  0  0  0  0  0  0
  -24.7155    9.7220   24.2518 C   0  0  0  0  0  0  0  0  0  0  0  0
  -24.8386    9.5922   23.0066 O   0  0  0  0  0  0  0  0  0  0  0  0
  -23.6812    9.0962   24.9809 N   0  0  0  0  0  0  0  0  0  0  0  0
  -23.6782    9.2789   26.0288 H   0  0  0  0  0  0  0  0  0  0  0  0
  -28.0412    8.7387   26.7816 C   0  0  0  0  0  0  0  0  0  0  0  0
  -27.7594   10.0308   26.2239 N   0  0  0  0  0  0  0  0  0  0  0  0
  -27.0933   10.0124   24.9732 C   0  0  0  0  0  0  0  0  0  0  0  0
  -25.7196   10.5773   24.9497 C   0  0  0  0  0  0  0  0  0  0  0  0
  -25.2023   11.0343   26.2992 C   0  0  0  0  0  0  0  0  0  0  0  0
  -26.2834   11.9241   26.8300 C   0  0  0  0  0  0  0  0  0  0  0  0
  -27.4553   11.0410   27.1560 C   0  0  0  0  0  0  0  0  0  0  0  0
  -28.6383   11.9132   27.5626 C   0  0  0  0  0  0  0  0  0  0  0  0
  -28.2485   12.6898   28.7653 C   0  0  0  0  0  0  0  0  0  0  0  0
  -28.8862   13.2165   29.8689 C   0  0  0  0  0  0  0  0  0  0  0  0
  -27.9534   13.8456   30.6461 N   0  0  0  0  0  0  0  0  0  0  0  0
  -26.7402   13.7372   30.0741 C   0  0  0  0  0  0  0  0  0  0  0  0
  -25.4566   14.1471   30.3648 C   0  0  0  0  0  0  0  0  0  0  0  0
  -24.4057   13.8355   29.4971 C   0  0  0  0  0  0  0  0  0  0  0  0
  -24.6342   13.1085   28.3276 C   0  0  0  0  0  0  0  0  0  0  0  0
  -25.9286   12.6935   28.0315 C   0  0  0  0  0  0  0  0  0  0  0  0
  -26.9242   13.0249   28.9153 C   0  0  0  0  0  0  0  0  0  0  0  0
  -28.1142   14.3470   31.5543 H   0  0  0  0  0  0  0  0  0  0  0  0
  -22.7330    3.5985   23.8159 C   0  0  0  0  0  0  0  0  0  0  0  0
  -23.7542    3.7406   24.9115 C   0  0  0  0  0  0  0  0  0  0  0  0
  -25.0766    3.7897   24.4967 C   0  0  0  0  0  0  0  0  0  0  0  0
  -26.0944    3.9191   25.4269 C   0  0  0  0  0  0  0  0  0  0  0  0
  -25.7559    3.9973   26.7726 C   0  0  0  0  0  0  0  0  0  0  0  0
  -24.4247    3.9453   27.1536 C   0  0  0  0  0  0  0  0  0  0  0  0
  -23.3960    3.8164   26.2390 C   0  0  0  0  0  0  0  0  0  0  0  0
 22 23  1  0
 23 24  1  0
 24 25  1  0
 25 26  1  0
 26 27  1  0
 27 28  1  0
 28 29  1  0
 29 30  1  0
 30 31  2  0
 31 32  1  0
 32 33  1  0
 33 34  2  0
 34 35  1  0
 35 36  2  0
 36 37  1  0
 37 38  2  0
 25 18  1  0
 18 19  2  0
 18 20  1  0
  1 20  1  0
  1  2  1  0
  1  3  1  0
  3  4  1  0
  4  5  1  0
  4  6  1  0
  6  7  1  0
  7  8  1  0
  8  9  1  0
  9 10  1  0
 10 11  1  0
 11 12  2  0
 11 13  1  0
 13 40  1  0
 40 41  1  0
 41 42  2  0
 42 43  1  0
 43 44  2  0
 44 45  1  0
 45 46  2  0
 13 14  1  0
 14 15  1  0
 15 16  2  0
 28 23  1  0
 37 27  1  0
 38 30  1  0
 38 33  1  0
 15  1  1  0
 14  4  1  0
 10  6  1  0
 46 41  1  0
 32 39  1  0
 20 21  1  0
  5 17  1  0
M  END
> <minimizedAffinity>
19.34719

> <CNNscore>
0.3425067663

> <CNNaffinity>
6.5739822388

> <CNN_VS>
2.2516334057

> <CNNaffinity_variance>
0.6972386241

$$$$



 46 53  0  0  0  0  0  0  0  0999 V2000
  -23.4124    9.2483   25.0697 C   0  0  0  0  0  0  0  0  0  0  0  0
  -24.8770    9.3170   25.4326 C   0  0  0  0  0  0  0  0  0  0  0  0
  -22.7980    8.4578   26.0185 O   0  0  0  0  0  0  0  0  0  0  0  0
  -22.6141    7.1890   25.5202 C   0  0  0  0  0  0  0  0  0  0  0  0
  -21.2633    6.8747   25.6724 O   0  0  0  0  0  0  0  0  0  0  0  0
  -23.3856    6.2423   26.3814 C   0  0  0  0  0  0  0  0  0  0  0  0
  -22.4968    5.4817   27.3693 C   0  0  0  0  0  0  0  0  0  0  0  0
  -23.3576    4.2790   27.7196 C   0  0  0  0  0  0  0  0  0  0  0  0
  -24.4556    4.2064   26.6809 C   0  0  0  0  0  0  0  0  0  0  0  0
  -23.9711    5.1243   25.6664 N   0  0  0  0  0  0  0  0  0  0  0  0
  -24.0101    5.0431   24.2465 C   0  0  0  0  0  0  0  0  0  0  0  0
  -24.7941    4.2593   23.6490 O   0  0  0  0  0  0  0  0  0  0  0  0
  -23.0987    5.9096   23.4571 C   0  0  0  0  0  0  0  0  0  0  0  0
  -23.0244    7.1671   24.1373 N   0  0  0  0  0  0  0  0  0  0  0  0
  -23.2725    8.5334   23.7739 C   0  0  0  0  0  0  0  0  0  0  0  0
  -23.3459    8.9772   22.5993 O   0  0  0  0  0  0  0  0  0  0  0  0
  -20.6967    7.6722   25.5112 H   0  0  0  0  0  0  0  0  0  0  0  0
  -21.3997   10.7585   25.1092 C   0  0  0  0  0  0  0  0  0  0  0  0
  -20.5778    9.8068   25.1403 O   0  0  0  0  0  0  0  0  0  0  0  0
  -22.7961   10.5538   25.0738 N   0  0  0  0  0  0  0  0  0  0  0  0
  -23.3921   11.4345   25.0495 H   0  0  0  0  0  0  0  0  0  0  0  0
  -17.6398   12.3179   26.4724 C   0  0  0  0  0  0  0  0  0  0  0  0
  -18.7825   13.0937   26.0823 N   0  0  0  0  0  0  0  0  0  0  0  0
  -20.0360   12.4748   26.3147 C   0  0  0  0  0  0  0  0  0  0  0  0
  -20.8400   12.1418   25.1108 C   0  0  0  0  0  0  0  0  0  0  0  0
  -20.1617   12.4568   23.7923 C   0  0  0  0  0  0  0  0  0  0  0  0
  -19.7222   13.8816   23.9312 C   0  0  0  0  0  0  0  0  0  0  0  0
  -18.6084   13.8988   24.9406 C   0  0  0  0  0  0  0  0  0  0  0  0
  -18.2216   15.3450   25.2309 C   0  0  0  0  0  0  0  0  0  0  0  0
  -17.7571   15.9625   23.9642 C   0  0  0  0  0  0  0  0  0  0  0  0
  -16.8633   16.9467   23.5972 C   0  0  0  0  0  0  0  0  0  0  0  0
  -16.8831   17.0603   22.2346 N   0  0  0  0  0  0  0  0  0  0  0  0
  -17.7608   16.1799   21.7197 C   0  0  0  0  0  0  0  0  0  0  0  0
  -18.2073   15.8304   20.4633 C   0  0  0  0  0  0  0  0  0  0  0  0
  -19.1681   14.8261   20.3128 C   0  0  0  0  0  0  0  0  0  0  0  0
  -19.6905   14.1625   21.4242 C   0  0  0  0  0  0  0  0  0  0  0  0
  -19.2419   14.5131   22.6935 C   0  0  0  0  0  0  0  0  0  0  0  0
  -18.2984   15.5046   22.7870 C   0  0  0  0  0  0  0  0  0  0  0  0
  -16.3185   17.7175   21.6417 H   0  0  0  0  0  0  0  0  0  0  0  0
  -21.7512    5.2562   23.2505 C   0  0  0  0  0  0  0  0  0  0  0  0
  -21.2966    5.6794   21.8804 C   0  0  0  0  0  0  0  0  0  0  0  0
  -21.4989    7.0151   21.5668 C   0  0  0  0  0  0  0  0  0  0  0  0
  -21.1153    7.5065   20.3302 C   0  0  0  0  0  0  0  0  0  0  0  0
  -20.5283    6.6324   19.4231 C   0  0  0  0  0  0  0  0  0  0  0  0
  -20.3403    5.3035   19.7678 C   0  0  0  0  0  0  0  0  0  0  0  0
  -20.7170    4.7958   20.9973 C   0  0  0  0  0  0  0  0  0  0  0  0
 22 23  1  0
 23 24  1  0
 24 25  1  0
 25 26  1  0
 26 27  1  0
 27 28  1  0
 28 29  1  0
 29 30  1  0
 30 31  2  0
 31 32  1  0
 32 33  1  0
 33 34  2  0
 34 35  1  0
 35 36  2  0
 36 37  1  0
 37 38  2  0
 25 18  1  0
 18 19  2  0
 18 20  1  0
  1 20  1  0
  1  2  1  0
  1  3  1  0
  3  4  1  0
  4  5  1  0
  4  6  1  0
  6  7  1  0
  7  8  1  0
  8  9  1  0
  9 10  1  0
 10 11  1  0
 11 12  2  0
 11 13  1  0
 13 40  1  0
 40 41  1  0
 41 42  2  0
 42 43  1  0
 43 44  2  0
 44 45  1  0
 45 46  2  0
 13 14  1  0
 14 15  1  0
 15 16  2  0
 28 23  1  0
 37 27  1  0
 38 30  1  0
 38 33  1  0
 15  1  1  0
 14  4  1  0
 10  6  1  0
 46 41  1  0
 32 39  1  0
 20 21  1  0
  5 17  1  0
M  END
> <minimizedAffinity>
-7.64370

> <CNNscore>
0.3228223622

> <CNNaffinity>
7.0500535965

> <CNN_VS>
2.2759149075

> <CNNaffinity_variance>
0.4495454431

$$$$



 46 53  0  0  0  0  0  0  0  0999 V2000
  -21.1323   10.5652   25.1663 C   0  0  0  0  0  0  0  0  0  0  0  0
  -19.9401    9.7852   25.6680 C   0  0  0  0  0  0  0  0  0  0  0  0
  -21.6311    9.8834   24.0759 O   0  0  0  0  0  0  0  0  0  0  0  0
  -22.7260    9.1404   24.4515 C   0  0  0  0  0  0  0  0  0  0  0  0
  -23.7734    9.4822   23.5954 O   0  0  0  0  0  0  0  0  0  0  0  0
  -22.4090    7.7009   24.2057 C   0  0  0  0  0  0  0  0  0  0  0  0
  -23.0609    7.1604   22.9300 C   0  0  0  0  0  0  0  0  0  0  0  0
  -23.0496    5.6597   23.1715 C   0  0  0  0  0  0  0  0  0  0  0  0
  -22.7762    5.4534   24.6454 C   0  0  0  0  0  0  0  0  0  0  0  0
  -22.9785    6.7880   25.1785 N   0  0  0  0  0  0  0  0  0  0  0  0
  -23.5921    7.2218   26.3867 C   0  0  0  0  0  0  0  0  0  0  0  0
  -23.7764    6.4377   27.3548 O   0  0  0  0  0  0  0  0  0  0  0  0
  -24.0229    8.6383   26.4995 C   0  0  0  0  0  0  0  0  0  0  0  0
  -23.0351    9.4299   25.8306 N   0  0  0  0  0  0  0  0  0  0  0  0
  -22.1968   10.5337   26.2034 C   0  0  0  0  0  0  0  0  0  0  0  0
  -22.3695   11.2807   27.2005 O   0  0  0  0  0  0  0  0  0  0  0  0
  -23.7484   10.4493   23.3784 H   0  0  0  0  0  0  0  0  0  0  0  0
  -19.4927   12.4656   24.9827 C   0  0  0  0  0  0  0  0  0  0  0  0
  -18.5679   11.8383   25.5604 O   0  0  0  0  0  0  0  0  0  0  0  0
  -20.7674   11.9015   24.7594 N   0  0  0  0  0  0  0  0  0  0  0  0
  -21.4691   12.5268   24.2613 H   0  0  0  0  0  0  0  0  0  0  0  0
  -19.3879   16.1983   27.1002 C   0  0  0  0  0  0  0  0  0  0  0  0
  -19.3397   16.0359   25.6750 N   0  0  0  0  0  0  0  0  0  0  0  0
  -20.0277   14.9018   25.1763 C   0  0  0  0  0  0  0  0  0  0  0  0
  -19.1934   13.8559   24.5308 C   0  0  0  0  0  0  0  0  0  0  0  0
  -17.7029   14.1300   24.5614 C   0  0  0  0  0  0  0  0  0  0  0  0
  -17.5693   15.5206   24.0224 C   0  0  0  0  0  0  0  0  0  0  0  0
  -18.1434   16.4474   25.0573 C   0  0  0  0  0  0  0  0  0  0  0  0
  -18.1677   17.8656   24.4974 C   0  0  0  0  0  0  0  0  0  0  0  0
  -16.7724   18.2648   24.1886 C   0  0  0  0  0  0  0  0  0  0  0  0
  -16.0481   19.4382   24.1599 C   0  0  0  0  0  0  0  0  0  0  0  0
  -14.7661   19.1441   23.7862 N   0  0  0  0  0  0  0  0  0  0  0  0
  -14.6484   17.8203   23.5754 C   0  0  0  0  0  0  0  0  0  0  0  0
  -13.6467   16.9525   23.1965 C   0  0  0  0  0  0  0  0  0  0  0  0
  -13.9091   15.5844   23.0785 C   0  0  0  0  0  0  0  0  0  0  0  0
  -15.1817   15.0742   23.3402 C   0  0  0  0  0  0  0  0  0  0  0  0
  -16.1948   15.9475   23.7228 C   0  0  0  0  0  0  0  0  0  0  0  0
  -15.8856   17.2804   23.8238 C   0  0  0  0  0  0  0  0  0  0  0  0
  -13.9667   19.8146   23.6694 H   0  0  0  0  0  0  0  0  0  0  0  0
  -25.4210    8.8385   25.9607 C   0  0  0  0  0  0  0  0  0  0  0  0
  -26.2048    9.4684   27.0796 C   0  0  0  0  0  0  0  0  0  0  0  0
  -27.5384    9.0965   27.1617 C   0  0  0  0  0  0  0  0  0  0  0  0
  -28.3477    9.6194   28.1565 C   0  0  0  0  0  0  0  0  0  0  0  0
  -27.7910   10.5170   29.0597 C   0  0  0  0  0  0  0  0  0  0  0  0
  -26.4550   10.8677   28.9499 C   0  0  0  0  0  0  0  0  0  0  0  0
  -25.6326   10.3558   27.9635 C   0  0  0  0  0  0  0  0  0  0  0  0
 22 23  1  0
 23 24  1  0
 24 25  1  0
 25 26  1  0
 26 27  1  0
 27 28  1  0
 28 29  1  0
 29 30  1  0
 30 31  2  0
 31 32  1  0
 32 33  1  0
 33 34  2  0
 34 35  1  0
 35 36  2  0
 36 37  1  0
 37 38  2  0
 25 18  1  0
 18 19  2  0
 18 20  1  0
  1 20  1  0
  1  2  1  0
  1  3  1  0
  3  4  1  0
  4  5  1  0
  4  6  1  0
  6  7  1  0
  7  8  1  0
  8  9  1  0
  9 10  1  0
 10 11  1  0
 11 12  2  0
 11 13  1  0
 13 40  1  0
 40 41  1  0
 41 42  2  0
 42 43  1  0
 43 44  2  0
 44 45  1  0
 45 46  2  0
 13 14  1  0
 14 15  1  0
 15 16  2  0
 28 23  1  0
 37 27  1  0
 38 30  1  0
 38 33  1  0
 15  1  1  0
 14  4  1  0
 10  6  1  0
 46 41  1  0
 32 39  1  0
 20 21  1  0
  5 17  1  0
M  END
> <minimizedAffinity>
-12.53209

> <CNNscore>
0.2889434099

> <CNNaffinity>
6.5091276169

> <CNN_VS>
1.8807694912

> <CNNaffinity_variance>
0.2251874655

$$$$



 46 53  0  0  0  0  0  0  0  0999 V2000
  -19.0779   14.9382   24.7301 C   0  0  0  0  0  0  0  0  0  0  0  0
  -20.1341   15.9248   25.1688 C   0  0  0  0  0  0  0  0  0  0  0  0
  -18.7302   15.2674   23.4365 O   0  0  0  0  0  0  0  0  0  0  0  0
  -17.5545   15.9812   23.4369 C   0  0  0  0  0  0  0  0  0  0  0  0
  -16.6774   15.3374   22.5635 O   0  0  0  0  0  0  0  0  0  0  0  0
  -17.8376   17.3305   22.8605 C   0  0  0  0  0  0  0  0  0  0  0  0
  -17.3759   17.4622   21.4065 C   0  0  0  0  0  0  0  0  0  0  0  0
  -17.2759   18.9690   21.2338 C   0  0  0  0  0  0  0  0  0  0  0  0
  -17.2965   19.5731   22.6210 C   0  0  0  0  0  0  0  0  0  0  0  0
  -17.0748   18.4093   23.4592 N   0  0  0  0  0  0  0  0  0  0  0  0
  -16.2951   18.2497   24.6385 C   0  0  0  0  0  0  0  0  0  0  0  0
  -15.9188   19.2378   25.3227 O   0  0  0  0  0  0  0  0  0  0  0  0
  -15.9202   16.8780   25.0658 C   0  0  0  0  0  0  0  0  0  0  0  0
  -17.0402   16.0319   24.7839 N   0  0  0  0  0  0  0  0  0  0  0  0
  -17.8590   15.1415   25.5565 C   0  0  0  0  0  0  0  0  0  0  0  0
  -17.5631   14.6655   26.6825 O   0  0  0  0  0  0  0  0  0  0  0  0
  -16.7836   14.3533   22.6210 H   0  0  0  0  0  0  0  0  0  0  0  0
  -20.5595   13.0912   23.8776 C   0  0  0  0  0  0  0  0  0  0  0  0
  -21.0977   13.8111   22.9975 O   0  0  0  0  0  0  0  0  0  0  0  0
  -19.5676   13.5803   24.7550 N   0  0  0  0  0  0  0  0  0  0  0  0
  -19.1855   12.8793   25.4579 H   0  0  0  0  0  0  0  0  0  0  0  0
  -18.7024    9.5985   25.5446 C   0  0  0  0  0  0  0  0  0  0  0  0
  -19.8769    9.6164   24.7199 N   0  0  0  0  0  0  0  0  0  0  0  0
  -19.9313   10.6718   23.7757 C   0  0  0  0  0  0  0  0  0  0  0  0
  -21.0126   11.6722   23.9671 C   0  0  0  0  0  0  0  0  0  0  0  0
  -21.8672   11.4496   25.1991 C   0  0  0  0  0  0  0  0  0  0  0  0
  -22.2900   10.0163   25.1044 C   0  0  0  0  0  0  0  0  0  0  0  0
  -21.0624    9.1820   25.3425 C   0  0  0  0  0  0  0  0  0  0  0  0
  -21.4053    7.7142   25.1117 C   0  0  0  0  0  0  0  0  0  0  0  0
  -22.4652    7.3297   26.0762 C   0  0  0  0  0  0  0  0  0  0  0  0
  -22.8502    6.1827   26.7385 C   0  0  0  0  0  0  0  0  0  0  0  0
  -23.9371    6.4774   27.5141 N   0  0  0  0  0  0  0  0  0  0  0  0
  -24.2585    7.7759   27.3684 C   0  0  0  0  0  0  0  0  0  0  0  0
  -25.2169    8.6317   27.8677 C   0  0  0  0  0  0  0  0  0  0  0  0
  -25.2386    9.9718   27.4700 C   0  0  0  0  0  0  0  0  0  0  0  0
  -24.2968   10.4658   26.5658 C   0  0  0  0  0  0  0  0  0  0  0  0
  -23.3284    9.6045   26.0601 C   0  0  0  0  0  0  0  0  0  0  0  0
  -23.3505    8.2992   26.4820 C   0  0  0  0  0  0  0  0  0  0  0  0
  -24.4688    5.8239   28.1406 H   0  0  0  0  0  0  0  0  0  0  0  0
  -14.6392   16.4210   24.4060 C   0  0  0  0  0  0  0  0  0  0  0  0
  -13.9587   17.6725   23.9223 C   0  0  0  0  0  0  0  0  0  0  0  0
  -13.2408   18.3736   24.8796 C   0  0  0  0  0  0  0  0  0  0  0  0
  -12.5767   19.5397   24.5372 C   0  0  0  0  0  0  0  0  0  0  0  0
  -12.6496   19.9815   23.2215 C   0  0  0  0  0  0  0  0  0  0  0  0
  -13.3755   19.2574   22.2894 C   0  0  0  0  0  0  0  0  0  0  0  0
  -14.0444   18.0917   22.6134 C   0  0  0  0  0  0  0  0  0  0  0  0
 22 23  1  0
 23 24  1  0
 24 25  1  0
 25 26  1  0
 26 27  1  0
 27 28  1  0
 28 29  1  0
 29 30  1  0
 30 31  2  0
 31 32  1  0
 32 33  1  0
 33 34  2  0
 34 35  1  0
 35 36  2  0
 36 37  1  0
 37 38  2  0
 25 18  1  0
 18 19  2  0
 18 20  1  0
  1 20  1  0
  1  2  1  0
  1  3  1  0
  3  4  1  0
  4  5  1  0
  4  6  1  0
  6  7  1  0
  7  8  1  0
  8  9  1  0
  9 10  1  0
 10 11  1  0
 11 12  2  0
 11 13  1  0
 13 40  1  0
 40 41  1  0
 41 42  2  0
 42 43  1  0
 43 44  2  0
 44 45  1  0
 45 46  2  0
 13 14  1  0
 14 15  1  0
 15 16  2  0
 28 23  1  0
 37 27  1  0
 38 30  1  0
 38 33  1  0
 15  1  1  0
 14  4  1  0
 10  6  1  0
 46 41  1  0
 32 39  1  0
 20 21  1  0
  5 17  1  0
M  END
> <minimizedAffinity>
-3.21647

> <CNNscore>
0.2603923976

> <CNNaffinity>
6.0999031067

> <CNN_VS>
1.5883684158

> <CNNaffinity_variance>
0.2757988572

$$$$



 46 53  0  0  0  0  0  0  0  0999 V2000
  -20.8891   13.7522   25.6426 C   0  0  0  0  0  0  0  0  0  0  0  0
  -22.1301   14.4885   25.1959 C   0  0  0  0  0  0  0  0  0  0  0  0
  -19.9237   13.9678   24.6812 O   0  0  0  0  0  0  0  0  0  0  0  0
  -19.0586   14.9510   25.1016 C   0  0  0  0  0  0  0  0  0  0  0  0
  -17.7661   14.4333   25.0114 O   0  0  0  0  0  0  0  0  0  0  0  0
  -19.1470   16.0843   24.1317 C   0  0  0  0  0  0  0  0  0  0  0  0
  -17.9721   16.1171   23.1503 C   0  0  0  0  0  0  0  0  0  0  0  0
  -17.9948   17.5577   22.6660 C   0  0  0  0  0  0  0  0  0  0  0  0
  -18.8701   18.3314   23.6278 C   0  0  0  0  0  0  0  0  0  0  0  0
  -19.0035   17.3976   24.7308 N   0  0  0  0  0  0  0  0  0  0  0  0
  -19.0062   17.6160   26.1367 C   0  0  0  0  0  0  0  0  0  0  0  0
  -19.2144   18.7560   26.6296 O   0  0  0  0  0  0  0  0  0  0  0  0
  -18.7562   16.4630   27.0383 C   0  0  0  0  0  0  0  0  0  0  0  0
  -19.4003   15.3268   26.4519 N   0  0  0  0  0  0  0  0  0  0  0  0
  -20.3836   14.3785   26.8923 C   0  0  0  0  0  0  0  0  0  0  0  0
  -20.7096   14.1630   28.0879 O   0  0  0  0  0  0  0  0  0  0  0  0
  -17.7536   13.4740   25.2615 H   0  0  0  0  0  0  0  0  0  0  0  0
  -20.0928   11.3863   25.9617 C   0  0  0  0  0  0  0  0  0  0  0  0
  -18.8809   11.7131   26.0440 O   0  0  0  0  0  0  0  0  0  0  0  0
  -21.1219   12.3327   25.7660 N   0  0  0  0  0  0  0  0  0  0  0  0
  -22.1085   11.9387   25.7121 H   0  0  0  0  0  0  0  0  0  0  0  0
  -23.0615    9.2971   28.2529 C   0  0  0  0  0  0  0  0  0  0  0  0
  -21.9643    8.6974   27.5484 N   0  0  0  0  0  0  0  0  0  0  0  0
  -20.8030    9.5034   27.4480 C   0  0  0  0  0  0  0  0  0  0  0  0
  -20.4159    9.9342   26.0801 C   0  0  0  0  0  0  0  0  0  0  0  0
  -21.3713    9.4976   24.9872 C   0  0  0  0  0  0  0  0  0  0  0  0
  -21.5365    8.0252   25.2040 C   0  0  0  0  0  0  0  0  0  0  0  0
  -22.3184    7.8560   26.4766 C   0  0  0  0  0  0  0  0  0  0  0  0
  -22.3893    6.3730   26.8243 C   0  0  0  0  0  0  0  0  0  0  0  0
  -23.0817    5.6708   25.7156 C   0  0  0  0  0  0  0  0  0  0  0  0
  -23.8826    4.5561   25.5799 C   0  0  0  0  0  0  0  0  0  0  0  0
  -24.2167    4.4240   24.2605 N   0  0  0  0  0  0  0  0  0  0  0  0
  -23.6549    5.4186   23.5494 C   0  0  0  0  0  0  0  0  0  0  0  0
  -23.6245    5.8106   22.2282 C   0  0  0  0  0  0  0  0  0  0  0  0
  -22.9034    6.9465   21.8484 C   0  0  0  0  0  0  0  0  0  0  0  0
  -22.2051    7.7005   22.7931 C   0  0  0  0  0  0  0  0  0  0  0  0
  -22.2339    7.3073   24.1272 C   0  0  0  0  0  0  0  0  0  0  0  0
  -22.9559    6.1857   24.4477 C   0  0  0  0  0  0  0  0  0  0  0  0
  -24.8153    3.6786   23.8264 H   0  0  0  0  0  0  0  0  0  0  0  0
  -17.2784   16.2583   27.2819 C   0  0  0  0  0  0  0  0  0  0  0  0
  -16.7879   17.5308   27.9171 C   0  0  0  0  0  0  0  0  0  0  0  0
  -17.4158   17.8919   29.0998 C   0  0  0  0  0  0  0  0  0  0  0  0
  -17.0382   19.0465   29.7649 C   0  0  0  0  0  0  0  0  0  0  0  0
  -16.0234   19.8236   29.2190 C   0  0  0  0  0  0  0  0  0  0  0  0
  -15.4166   19.4344   28.0357 C   0  0  0  0  0  0  0  0  0  0  0  0
  -15.7806   18.2854   27.3584 C   0  0  0  0  0  0  0  0  0  0  0  0
 22 23  1  0
 23 24  1  0
 24 25  1  0
 25 26  1  0
 26 27  1  0
 27 28  1  0
 28 29  1  0
 29 30  1  0
 30 31  2  0
 31 32  1  0
 32 33  1  0
 33 34  2  0
 34 35  1  0
 35 36  2  0
 36 37  1  0
 37 38  2  0
 25 18  1  0
 18 19  2  0
 18 20  1  0
  1 20  1  0
  1  2  1  0
  1  3  1  0
  3  4  1  0
  4  5  1  0
  4  6  1  0
  6  7  1  0
  7  8  1  0
  8  9  1  0
  9 10  1  0
 10 11  1  0
 11 12  2  0
 11 13  1  0
 13 40  1  0
 40 41  1  0
 41 42  2  0
 42 43  1  0
 43 44  2  0
 44 45  1  0
 45 46  2  0
 13 14  1  0
 14 15  1  0
 15 16  2  0
 28 23  1  0
 37 27  1  0
 38 30  1  0
 38 33  1  0
 15  1  1  0
 14  4  1  0
 10  6  1  0
 46 41  1  0
 32 39  1  0
 20 21  1  0
  5 17  1  0
M  END
> <minimizedAffinity>
-4.47871

> <CNNscore>
0.2280623615

> <CNNaffinity>
6.3208646774

> <CNN_VS>
1.4415513277

> <CNNaffinity_variance>
0.8043902516

$$$$



 46 53  0  0  0  0  0  0  0  0999 V2000
  -20.7076   12.2854   27.5241 C   0  0  0  0  0  0  0  0  0  0  0  0
  -19.9898   11.2177   28.3155 C   0  0  0  0  0  0  0  0  0  0  0  0
  -21.1714   11.6894   26.3699 O   0  0  0  0  0  0  0  0  0  0  0  0
  -22.5079   11.3928   26.5028 C   0  0  0  0  0  0  0  0  0  0  0  0
  -23.1701   11.9628   25.4151 O   0  0  0  0  0  0  0  0  0  0  0  0
  -22.6623    9.9111   26.3844 C   0  0  0  0  0  0  0  0  0  0  0  0
  -23.1788    9.4775   25.0097 C   0  0  0  0  0  0  0  0  0  0  0  0
  -23.7357    8.0924   25.2953 C   0  0  0  0  0  0  0  0  0  0  0  0
  -23.8643    7.9712   26.7981 C   0  0  0  0  0  0  0  0  0  0  0  0
  -23.7011    9.3484   27.2260 N   0  0  0  0  0  0  0  0  0  0  0  0
  -24.3655   10.0894   28.2426 C   0  0  0  0  0  0  0  0  0  0  0  0
  -25.0064    9.5207   29.1655 O   0  0  0  0  0  0  0  0  0  0  0  0
  -24.2954   11.5722   28.2060 C   0  0  0  0  0  0  0  0  0  0  0  0
  -22.9790   11.9174   27.7615 N   0  0  0  0  0  0  0  0  0  0  0  0
  -21.9093   12.7191   28.2841 C   0  0  0  0  0  0  0  0  0  0  0  0
  -22.0183   13.5862   29.1887 O   0  0  0  0  0  0  0  0  0  0  0  0
  -22.7689   12.8382   25.1790 H   0  0  0  0  0  0  0  0  0  0  0  0
  -18.7218   13.2366   26.3055 C   0  0  0  0  0  0  0  0  0  0  0  0
  -18.4151   12.1401   25.7706 O   0  0  0  0  0  0  0  0  0  0  0  0
  -19.8285   13.3747   27.1711 N   0  0  0  0  0  0  0  0  0  0  0  0
  -19.9896   14.3502   27.5636 H   0  0  0  0  0  0  0  0  0  0  0  0
  -15.6581   13.8240   23.3566 C   0  0  0  0  0  0  0  0  0  0  0  0
  -15.9521   14.7020   24.4532 N   0  0  0  0  0  0  0  0  0  0  0  0
  -16.4662   14.0658   25.6105 C   0  0  0  0  0  0  0  0  0  0  0  0
  -17.8599   14.4130   25.9893 C   0  0  0  0  0  0  0  0  0  0  0  0
  -18.5574   15.3578   25.0309 C   0  0  0  0  0  0  0  0  0  0  0  0
  -17.6020   16.4999   24.8732 C   0  0  0  0  0  0  0  0  0  0  0  0
  -16.4238   15.9800   24.0979 C   0  0  0  0  0  0  0  0  0  0  0  0
  -15.3518   17.0627   24.0351 C   0  0  0  0  0  0  0  0  0  0  0  0
  -15.9255   18.2418   23.3407 C   0  0  0  0  0  0  0  0  0  0  0  0
  -15.4537   19.2641   22.5441 C   0  0  0  0  0  0  0  0  0  0  0  0
  -16.5073   20.0669   22.2046 N   0  0  0  0  0  0  0  0  0  0  0  0
  -17.6369   19.5899   22.7587 C   0  0  0  0  0  0  0  0  0  0  0  0
  -18.9683   19.9462   22.7814 C   0  0  0  0  0  0  0  0  0  0  0  0
  -19.8903   19.1754   23.4957 C   0  0  0  0  0  0  0  0  0  0  0  0
  -19.4834   18.0379   24.1950 C   0  0  0  0  0  0  0  0  0  0  0  0
  -18.1403   17.6758   24.1740 C   0  0  0  0  0  0  0  0  0  0  0  0
  -17.2763   18.4654   23.4584 C   0  0  0  0  0  0  0  0  0  0  0  0
  -16.4841   20.9300   21.6073 H   0  0  0  0  0  0  0  0  0  0  0  0
  -25.3937   12.1594   27.3491 C   0  0  0  0  0  0  0  0  0  0  0  0
  -26.6749   11.5530   27.8532 C   0  0  0  0  0  0  0  0  0  0  0  0
  -27.4580   12.3780   28.6465 C   0  0  0  0  0  0  0  0  0  0  0  0
  -28.6578   11.9158   29.1611 C   0  0  0  0  0  0  0  0  0  0  0  0
  -29.0498   10.6163   28.8626 C   0  0  0  0  0  0  0  0  0  0  0  0
  -28.2440    9.8179   28.0668 C   0  0  0  0  0  0  0  0  0  0  0  0
  -27.0436   10.2626   27.5448 C   0  0  0  0  0  0  0  0  0  0  0  0
 22 23  1  0
 23 24  1  0
 24 25  1  0
 25 26  1  0
 26 27  1  0
 27 28  1  0
 28 29  1  0
 29 30  1  0
 30 31  2  0
 31 32  1  0
 32 33  1  0
 33 34  2  0
 34 35  1  0
 35 36  2  0
 36 37  1  0
 37 38  2  0
 25 18  1  0
 18 19  2  0
 18 20  1  0
  1 20  1  0
  1  2  1  0
  1  3  1  0
  3  4  1  0
  4  5  1  0
  4  6  1  0
  6  7  1  0
  7  8  1  0
  8  9  1  0
  9 10  1  0
 10 11  1  0
 11 12  2  0
 11 13  1  0
 13 40  1  0
 40 41  1  0
 41 42  2  0
 42 43  1  0
 43 44  2  0
 44 45  1  0
 45 46  2  0
 13 14  1  0
 14 15  1  0
 15 16  2  0
 28 23  1  0
 37 27  1  0
 38 30  1  0
 38 33  1  0
 15  1  1  0
 14  4  1  0
 10  6  1  0
 46 41  1  0
 32 39  1  0
 20 21  1  0
  5 17  1  0
M  END
> <minimizedAffinity>
-4.70572

> <CNNscore>
0.2109764516

> <CNNaffinity>
6.1648931503

> <CNN_VS>
1.3006472588

> <CNNaffinity_variance>
0.5969522595

$$$$



 46 53  0  0  0  0  0  0  0  0999 V2000
  -19.1246   14.9624   24.4342 C   0  0  0  0  0  0  0  0  0  0  0  0
  -20.2216   15.6295   23.6384 C   0  0  0  0  0  0  0  0  0  0  0  0
  -17.9603   15.0950   23.7066 O   0  0  0  0  0  0  0  0  0  0  0  0
  -17.2089   16.1295   24.2135 C   0  0  0  0  0  0  0  0  0  0  0  0
  -15.9351   15.6263   24.4797 O   0  0  0  0  0  0  0  0  0  0  0  0
  -17.0601   17.1571   23.1388 C   0  0  0  0  0  0  0  0  0  0  0  0
  -15.6887   17.1090   22.4592 C   0  0  0  0  0  0  0  0  0  0  0  0
  -15.5866   18.4925   21.8380 C   0  0  0  0  0  0  0  0  0  0  0  0
  -16.6556   19.3455   22.4856 C   0  0  0  0  0  0  0  0  0  0  0  0
  -17.0495   18.5264   23.6171 N   0  0  0  0  0  0  0  0  0  0  0  0
  -17.3777   18.8863   24.9539 C   0  0  0  0  0  0  0  0  0  0  0  0
  -17.6858   20.0670   25.2655 O   0  0  0  0  0  0  0  0  0  0  0  0
  -17.3536   17.8349   26.0021 C   0  0  0  0  0  0  0  0  0  0  0  0
  -17.8526   16.6348   25.4017 N   0  0  0  0  0  0  0  0  0  0  0  0
  -18.9190   15.7204   25.6963 C   0  0  0  0  0  0  0  0  0  0  0  0
  -19.5160   15.6220   26.7990 O   0  0  0  0  0  0  0  0  0  0  0  0
  -15.9889   14.6976   24.8227 H   0  0  0  0  0  0  0  0  0  0  0  0
  -20.0515   12.7395   23.7042 C   0  0  0  0  0  0  0  0  0  0  0  0
  -20.4625   13.1759   22.5983 O   0  0  0  0  0  0  0  0  0  0  0  0
  -19.3911   13.5593   24.6449 N   0  0  0  0  0  0  0  0  0  0  0  0
  -19.0891   13.0796   25.5450 H   0  0  0  0  0  0  0  0  0  0  0  0
  -18.7941   10.2399   26.9597 C   0  0  0  0  0  0  0  0  0  0  0  0
  -19.4001    9.7919   25.7382 N   0  0  0  0  0  0  0  0  0  0  0  0
  -19.1277   10.5954   24.6031 C   0  0  0  0  0  0  0  0  0  0  0  0
  -20.2892   11.2957   23.9973 C   0  0  0  0  0  0  0  0  0  0  0  0
  -21.5994   11.0975   24.7333 C   0  0  0  0  0  0  0  0  0  0  0  0
  -21.7185    9.6128   24.8874 C   0  0  0  0  0  0  0  0  0  0  0  0
  -20.6655    9.1901   25.8735 C   0  0  0  0  0  0  0  0  0  0  0  0
  -20.6441    7.6677   25.9573 C   0  0  0  0  0  0  0  0  0  0  0  0
  -21.9768    7.2114   26.4235 C   0  0  0  0  0  0  0  0  0  0  0  0
  -22.4754    6.1524   27.1530 C   0  0  0  0  0  0  0  0  0  0  0  0
  -23.8320    6.2954   27.2478 N   0  0  0  0  0  0  0  0  0  0  0  0
  -24.2157    7.4119   26.6021 C   0  0  0  0  0  0  0  0  0  0  0  0
  -25.4032    8.0665   26.3542 C   0  0  0  0  0  0  0  0  0  0  0  0
  -25.4109    9.2525   25.6140 C   0  0  0  0  0  0  0  0  0  0  0  0
  -24.2246    9.7930   25.1151 C   0  0  0  0  0  0  0  0  0  0  0  0
  -23.0246    9.1346   25.3636 C   0  0  0  0  0  0  0  0  0  0  0  0
  -23.0712    7.9748   26.0949 C   0  0  0  0  0  0  0  0  0  0  0  0
  -24.5072    5.6581   27.7378 H   0  0  0  0  0  0  0  0  0  0  0  0
  -15.9748   17.6799   26.6021 C   0  0  0  0  0  0  0  0  0  0  0  0
  -16.0292   18.3705   27.9375 C   0  0  0  0  0  0  0  0  0  0  0  0
  -17.2565   18.3346   28.5822 C   0  0  0  0  0  0  0  0  0  0  0  0
  -17.4127   18.9407   29.8176 C   0  0  0  0  0  0  0  0  0  0  0  0
  -16.3164   19.5784   30.3859 C   0  0  0  0  0  0  0  0  0  0  0  0
  -15.1040   19.5961   29.7153 C   0  0  0  0  0  0  0  0  0  0  0  0
  -14.9300   18.9965   28.4818 C   0  0  0  0  0  0  0  0  0  0  0  0
 22 23  1  0
 23 24  1  0
 24 25  1  0
 25 26  1  0
 26 27  1  0
 27 28  1  0
 28 29  1  0
 29 30  1  0
 30 31  2  0
 31 32  1  0
 32 33  1  0
 33 34  2  0
 34 35  1  0
 35 36  2  0
 36 37  1  0
 37 38  2  0
 25 18  1  0
 18 19  2  0
 18 20  1  0
  1 20  1  0
  1  2  1  0
  1  3  1  0
  3  4  1  0
  4  5  1  0
  4  6  1  0
  6  7  1  0
  7  8  1  0
  8  9  1  0
  9 10  1  0
 10 11  1  0
 11 12  2  0
 11 13  1  0
 13 40  1  0
 40 41  1  0
 41 42  2  0
 42 43  1  0
 43 44  2  0
 44 45  1  0
 45 46  2  0
 13 14  1  0
 14 15  1  0
 15 16  2  0
 28 23  1  0
 37 27  1  0
 38 30  1  0
 38 33  1  0
 15  1  1  0
 14  4  1  0
 10  6  1  0
 46 41  1  0
 32 39  1  0
 20 21  1  0
  5 17  1  0
M  END
> <minimizedAffinity>
-4.88298

> <CNNscore>
0.2039844990

> <CNNaffinity>
6.2046036720

> <CNN_VS>
1.2656430006

> <CNNaffinity_variance>
0.3840300441

$$$$
