


 46 53  0  0  0  0  0  0  0  0999 V2000
  -21.1277   12.4469   19.8582 C   0  0  0  0  0  0  0  0  0  0  0  0
  -21.6583   13.2088   18.6667 C   0  0  0  0  0  0  0  0  0  0  0  0
  -19.8114   12.1373   19.5859 O   0  0  0  0  0  0  0  0  0  0  0  0
  -18.9809   13.0224   20.2331 C   0  0  0  0  0  0  0  0  0  0  0  0
  -18.0741   12.2703   20.9807 O   0  0  0  0  0  0  0  0  0  0  0  0
  -18.1941   13.7550   19.1951 C   0  0  0  0  0  0  0  0  0  0  0  0
  -16.7621   13.2305   19.0577 C   0  0  0  0  0  0  0  0  0  0  0  0
  -16.0519   14.3984   18.3928 C   0  0  0  0  0  0  0  0  0  0  0  0
  -16.9566   15.6028   18.5366 C   0  0  0  0  0  0  0  0  0  0  0  0
  -17.9179   15.1412   19.5211 N   0  0  0  0  0  0  0  0  0  0  0  0
  -18.5252   15.8194   20.6144 C   0  0  0  0  0  0  0  0  0  0  0  0
  -18.5402   17.0765   20.6885 O   0  0  0  0  0  0  0  0  0  0  0  0
  -19.1556   15.0150   21.6917 C   0  0  0  0  0  0  0  0  0  0  0  0
  -19.7803   13.8909   21.0625 N   0  0  0  0  0  0  0  0  0  0  0  0
  -21.1104   13.3520   21.0372 C   0  0  0  0  0  0  0  0  0  0  0  0
  -22.0251   13.6201   21.8578 O   0  0  0  0  0  0  0  0  0  0  0  0
  -18.5141   11.4686   21.3635 H   0  0  0  0  0  0  0  0  0  0  0  0
  -21.5142   10.2754   21.0700 C   0  0  0  0  0  0  0  0  0  0  0  0
  -20.5264   10.4257   21.8343 O   0  0  0  0  0  0  0  0  0  0  0  0
  -21.8617   11.2245   20.0844 N   0  0  0  0  0  0  0  0  0  0  0  0
  -22.7171   10.9895   19.4973 H   0  0  0  0  0  0  0  0  0  0  0  0
  -20.5794    6.1371   20.4156 C   0  0  0  0  0  0  0  0  0  0  0  0
  -21.8852    6.6768   20.6674 N   0  0  0  0  0  0  0  0  0  0  0  0
  -22.0878    8.0001   20.2025 C   0  0  0  0  0  0  0  0  0  0  0  0
  -22.3253    9.0346   21.2417 C   0  0  0  0  0  0  0  0  0  0  0  0
  -22.2481    8.5259   22.6675 C   0  0  0  0  0  0  0  0  0  0  0  0
  -23.1564    7.3357   22.6875 C   0  0  0  0  0  0  0  0  0  0  0  0
  -22.4909    6.2644   21.8695 C   0  0  0  0  0  0  0  0  0  0  0  0
  -23.4408    5.0793   21.7333 C   0  0  0  0  0  0  0  0  0  0  0  0
  -23.7316    4.5612   23.0929 C   0  0  0  0  0  0  0  0  0  0  0  0
  -24.0397    3.3404   23.6561 C   0  0  0  0  0  0  0  0  0  0  0  0
  -24.1995    3.5154   25.0028 N   0  0  0  0  0  0  0  0  0  0  0  0
  -24.0032    4.8089   25.3178 C   0  0  0  0  0  0  0  0  0  0  0  0
  -24.0244    5.5740   26.4641 C   0  0  0  0  0  0  0  0  0  0  0  0
  -23.7594    6.9452   26.3991 C   0  0  0  0  0  0  0  0  0  0  0  0
  -23.4704    7.5617   25.1806 C   0  0  0  0  0  0  0  0  0  0  0  0
  -23.4484    6.7921   24.0219 C   0  0  0  0  0  0  0  0  0  0  0  0
  -23.7152    5.4515   24.1396 C   0  0  0  0  0  0  0  0  0  0  0  0
  -24.4379    2.7833   25.7166 H   0  0  0  0  0  0  0  0  0  0  0  0
  -18.1537   14.6294   22.7560 C   0  0  0  0  0  0  0  0  0  0  0  0
  -17.4586   15.9055   23.1456 C   0  0  0  0  0  0  0  0  0  0  0  0
  -18.1223   16.6903   24.0766 C   0  0  0  0  0  0  0  0  0  0  0  0
  -17.5673   17.8855   24.5028 C   0  0  0  0  0  0  0  0  0  0  0  0
  -16.3401   18.2709   23.9765 C   0  0  0  0  0  0  0  0  0  0  0  0
  -15.7032   17.4636   23.0477 C   0  0  0  0  0  0  0  0  0  0  0  0
  -16.2423   16.2677   22.6110 C   0  0  0  0  0  0  0  0  0  0  0  0
 22 23  1  0
 23 24  1  0
 24 25  1  0
 25 26  1  0
 26 27  1  0
 27 28  1  0
 28 29  1  0
 29 30  1  0
 30 31  2  0
 31 32  1  0
 32 33  1  0
 33 34  2  0
 34 35  1  0
 35 36  2  0
 36 37  1  0
 37 38  2  0
 25 18  1  0
 18 19  2  0
 18 20  1  0
  1 20  1  0
  1  2  1  0
  1  3  1  0
  3  4  1  0
  4  5  1  0
  4  6  1  0
  6  7  1  0
  7  8  1  0
  8  9  1  0
  9 10  1  0
 10 11  1  0
 11 12  2  0
 11 13  1  0
 13 40  1  0
 40 41  1  0
 41 42  2  0
 42 43  1  0
 43 44  2  0
 44 45  1  0
 45 46  2  0
 13 14  1  0
 14 15  1  0
 15 16  2  0
 28 23  1  0
 37 27  1  0
 38 30  1  0
 38 33  1  0
 15  1  1  0
 14  4  1  0
 10  6  1  0
 46 41  1  0
 32 39  1  0
 20 21  1  0
  5 17  1  0
M  END
> <minimizedAffinity>
-12.09276

> <CNNscore>
0.8762274384

> <CNNaffinity>
7.8367600441

> <CNN_VS>
6.8667840958

> <CNNaffinity_variance>
0.1612686813

$$$$



 46 53  0  0  0  0  0  0  0  0999 V2000
  -20.9151   12.0583   19.3557 C   0  0  0  0  0  0  0  0  0  0  0  0
  -21.2636   12.6656   18.0173 C   0  0  0  0  0  0  0  0  0  0  0  0
  -19.5526   11.8432   19.3590 O   0  0  0  0  0  0  0  0  0  0  0  0
  -18.9233   12.8499   20.0534 C   0  0  0  0  0  0  0  0  0  0  0  0
  -18.1233   12.2473   21.0248 O   0  0  0  0  0  0  0  0  0  0  0  0
  -18.0084   13.5569   19.1068 C   0  0  0  0  0  0  0  0  0  0  0  0
  -16.5429   13.1502   19.2845 C   0  0  0  0  0  0  0  0  0  0  0  0
  -15.8040   14.3144   18.6451 C   0  0  0  0  0  0  0  0  0  0  0  0
  -16.8018   15.4427   18.5006 C   0  0  0  0  0  0  0  0  0  0  0  0
  -17.8967   14.9848   19.3361 N   0  0  0  0  0  0  0  0  0  0  0  0
  -18.7454   15.6985   20.2274 C   0  0  0  0  0  0  0  0  0  0  0  0
  -18.8624   16.9512   20.1706 O   0  0  0  0  0  0  0  0  0  0  0  0
  -19.5095   14.9374   21.2481 C   0  0  0  0  0  0  0  0  0  0  0  0
  -19.9238   13.7130   20.6326 N   0  0  0  0  0  0  0  0  0  0  0  0
  -21.1841   13.0594   20.4212 C   0  0  0  0  0  0  0  0  0  0  0  0
  -22.2537   13.3157   21.0313 O   0  0  0  0  0  0  0  0  0  0  0  0
  -18.5702   11.4459   21.4003 H   0  0  0  0  0  0  0  0  0  0  0  0
  -21.4143   10.0021   20.7182 C   0  0  0  0  0  0  0  0  0  0  0  0
  -20.6450   10.3316   21.6574 O   0  0  0  0  0  0  0  0  0  0  0  0
  -21.5909   10.8002   19.5672 N   0  0  0  0  0  0  0  0  0  0  0  0
  -22.2669   10.4192   18.8395 H   0  0  0  0  0  0  0  0  0  0  0  0
  -20.1102    5.9213   20.4464 C   0  0  0  0  0  0  0  0  0  0  0  0
  -21.4728    6.3694   20.4960 N   0  0  0  0  0  0  0  0  0  0  0  0
  -21.7059    7.6465   19.9279 C   0  0  0  0  0  0  0  0  0  0  0  0
  -22.1508    8.7123   20.8621 C   0  0  0  0  0  0  0  0  0  0  0  0
  -22.2258    8.2867   22.3150 C   0  0  0  0  0  0  0  0  0  0  0  0
  -23.0421    7.0315   22.2932 C   0  0  0  0  0  0  0  0  0  0  0  0
  -22.2005    5.9743   21.6346 C   0  0  0  0  0  0  0  0  0  0  0  0
  -23.0378    4.7129   21.4527 C   0  0  0  0  0  0  0  0  0  0  0  0
  -23.4673    4.2456   22.7938 C   0  0  0  0  0  0  0  0  0  0  0  0
  -23.7593    3.0356   23.3881 C   0  0  0  0  0  0  0  0  0  0  0  0
  -24.1068    3.2679   24.6900 N   0  0  0  0  0  0  0  0  0  0  0  0
  -24.0459    4.5875   24.9463 C   0  0  0  0  0  0  0  0  0  0  0  0
  -24.2718    5.4077   26.0309 C   0  0  0  0  0  0  0  0  0  0  0  0
  -24.0986    6.7901   25.9151 C   0  0  0  0  0  0  0  0  0  0  0  0
  -23.6963    7.3626   24.7072 C   0  0  0  0  0  0  0  0  0  0  0  0
  -23.4677    6.5374   23.6108 C   0  0  0  0  0  0  0  0  0  0  0  0
  -23.6518    5.1881   23.7767 C   0  0  0  0  0  0  0  0  0  0  0  0
  -24.3844    2.5578   25.4118 H   0  0  0  0  0  0  0  0  0  0  0  0
  -18.7018   14.7341   22.5096 C   0  0  0  0  0  0  0  0  0  0  0  0
  -19.6175   14.0297   23.4731 C   0  0  0  0  0  0  0  0  0  0  0  0
  -20.7822   14.7082   23.7994 C   0  0  0  0  0  0  0  0  0  0  0  0
  -21.6931   14.1463   24.6783 C   0  0  0  0  0  0  0  0  0  0  0  0
  -21.4095   12.8972   25.2174 C   0  0  0  0  0  0  0  0  0  0  0  0
  -20.2367   12.2458   24.8706 C   0  0  0  0  0  0  0  0  0  0  0  0
  -19.3163   12.7916   23.9952 C   0  0  0  0  0  0  0  0  0  0  0  0
 22 23  1  0
 23 24  1  0
 24 25  1  0
 25 26  1  0
 26 27  1  0
 27 28  1  0
 28 29  1  0
 29 30  1  0
 30 31  2  0
 31 32  1  0
 32 33  1  0
 33 34  2  0
 34 35  1  0
 35 36  2  0
 36 37  1  0
 37 38  2  0
 25 18  1  0
 18 19  2  0
 18 20  1  0
  1 20  1  0
  1  2  1  0
  1  3  1  0
  3  4  1  0
  4  5  1  0
  4  6  1  0
  6  7  1  0
  7  8  1  0
  8  9  1  0
  9 10  1  0
 10 11  1  0
 11 12  2  0
 11 13  1  0
 13 40  1  0
 40 41  1  0
 41 42  2  0
 42 43  1  0
 43 44  2  0
 44 45  1  0
 45 46  2  0
 13 14  1  0
 14 15  1  0
 15 16  2  0
 28 23  1  0
 37 27  1  0
 38 30  1  0
 38 33  1  0
 15  1  1  0
 14  4  1  0
 10  6  1  0
 46 41  1  0
 32 39  1  0
 20 21  1  0
  5 17  1  0
M  END
> <minimizedAffinity>
-10.78226

> <CNNscore>
0.6894059777

> <CNNaffinity>
7.9377150536

> <CNN_VS>
5.4723081589

> <CNNaffinity_variance>
0.4570270479

$$$$



 46 53  0  0  0  0  0  0  0  0999 V2000
  -20.3267   11.8535   23.5136 C   0  0  0  0  0  0  0  0  0  0  0  0
  -19.6174   11.8658   24.8472 C   0  0  0  0  0  0  0  0  0  0  0  0
  -21.1853   12.9331   23.5031 O   0  0  0  0  0  0  0  0  0  0  0  0
  -20.6241   13.9681   22.7920 C   0  0  0  0  0  0  0  0  0  0  0  0
  -21.5494   14.3555   21.8222 O   0  0  0  0  0  0  0  0  0  0  0  0
  -20.4534   15.1241   23.7235 C   0  0  0  0  0  0  0  0  0  0  0  0
  -21.5307   16.1967   23.5400 C   0  0  0  0  0  0  0  0  0  0  0  0
  -20.8773   17.4211   24.1600 C   0  0  0  0  0  0  0  0  0  0  0  0
  -19.4028   17.1105   24.2981 C   0  0  0  0  0  0  0  0  0  0  0  0
  -19.2675   15.9220   23.4762 N   0  0  0  0  0  0  0  0  0  0  0  0
  -18.2343   15.5242   22.5826 C   0  0  0  0  0  0  0  0  0  0  0  0
  -17.0864   16.0403   22.6253 O   0  0  0  0  0  0  0  0  0  0  0  0
  -18.5271   14.4719   21.5767 C   0  0  0  0  0  0  0  0  0  0  0  0
  -19.3841   13.5157   22.2098 N   0  0  0  0  0  0  0  0  0  0  0  0
  -19.3303   12.0997   22.4383 C   0  0  0  0  0  0  0  0  0  0  0  0
  -18.5845   11.2878   21.8329 O   0  0  0  0  0  0  0  0  0  0  0  0
  -22.0291   13.5672   21.4596 H   0  0  0  0  0  0  0  0  0  0  0  0
  -21.8320   10.3637   22.1543 C   0  0  0  0  0  0  0  0  0  0  0  0
  -21.8846   11.1587   21.1808 O   0  0  0  0  0  0  0  0  0  0  0  0
  -21.0898   10.6431   23.3222 N   0  0  0  0  0  0  0  0  0  0  0  0
  -21.1200    9.8962   24.0790 H   0  0  0  0  0  0  0  0  0  0  0  0
  -20.7547    6.5304   20.5505 C   0  0  0  0  0  0  0  0  0  0  0  0
  -22.0765    6.9468   20.9235 N   0  0  0  0  0  0  0  0  0  0  0  0
  -22.3318    8.3334   20.7807 C   0  0  0  0  0  0  0  0  0  0  0  0
  -22.5957    9.0875   22.0330 C   0  0  0  0  0  0  0  0  0  0  0  0
  -22.4851    8.2636   23.3006 C   0  0  0  0  0  0  0  0  0  0  0  0
  -23.3495    7.0682   23.0438 C   0  0  0  0  0  0  0  0  0  0  0  0
  -22.6542    6.2430   21.9972 C   0  0  0  0  0  0  0  0  0  0  0  0
  -23.5620    5.0874   21.5898 C   0  0  0  0  0  0  0  0  0  0  0  0
  -23.8195    4.2560   22.7915 C   0  0  0  0  0  0  0  0  0  0  0  0
  -24.0772    2.9268   23.0548 C   0  0  0  0  0  0  0  0  0  0  0  0
  -24.2291    2.7768   24.4054 N   0  0  0  0  0  0  0  0  0  0  0  0
  -24.0766    3.9677   25.0131 C   0  0  0  0  0  0  0  0  0  0  0  0
  -24.1134    4.4431   26.3065 C   0  0  0  0  0  0  0  0  0  0  0  0
  -23.8991    5.8006   26.5628 C   0  0  0  0  0  0  0  0  0  0  0  0
  -23.6453    6.6947   25.5213 C   0  0  0  0  0  0  0  0  0  0  0  0
  -23.6076    6.2179   24.2150 C   0  0  0  0  0  0  0  0  0  0  0  0
  -23.8244    4.8777   24.0170 C   0  0  0  0  0  0  0  0  0  0  0  0
  -24.4334    1.8901   24.9290 H   0  0  0  0  0  0  0  0  0  0  0  0
  -19.1107   15.0591   20.3119 C   0  0  0  0  0  0  0  0  0  0  0  0
  -19.1061   13.9437   19.3025 C   0  0  0  0  0  0  0  0  0  0  0  0
  -17.8711   13.3634   19.0548 C   0  0  0  0  0  0  0  0  0  0  0  0
  -17.7582   12.3277   18.1423 C   0  0  0  0  0  0  0  0  0  0  0  0
  -18.9052   11.8918   17.4898 C   0  0  0  0  0  0  0  0  0  0  0  0
  -20.1239   12.4932   17.7602 C   0  0  0  0  0  0  0  0  0  0  0  0
  -20.2552   13.5279   18.6676 C   0  0  0  0  0  0  0  0  0  0  0  0
 22 23  1  0
 23 24  1  0
 24 25  1  0
 25 26  1  0
 26 27  1  0
 27 28  1  0
 28 29  1  0
 29 30  1  0
 30 31  2  0
 31 32  1  0
 32 33  1  0
 33 34  2  0
 34 35  1  0
 35 36  2  0
 36 37  1  0
 37 38  2  0
 25 18  1  0
 18 19  2  0
 18 20  1  0
  1 20  1  0
  1  2  1  0
  1  3  1  0
  3  4  1  0
  4  5  1  0
  4  6  1  0
  6  7  1  0
  7  8  1  0
  8  9  1  0
  9 10  1  0
 10 11  1  0
 11 12  2  0
 11 13  1  0
 13 40  1  0
 40 41  1  0
 41 42  2  0
 42 43  1  0
 43 44  2  0
 44 45  1  0
 45 46  2  0
 13 14  1  0
 14 15  1  0
 15 16  2  0
 28 23  1  0
 37 27  1  0
 38 30  1  0
 38 33  1  0
 15  1  1  0
 14  4  1  0
 10  6  1  0
 46 41  1  0
 32 39  1  0
 20 21  1  0
  5 17  1  0
M  END
> <minimizedAffinity>
-9.48236

> <CNNscore>
0.5113487840

> <CNNaffinity>
7.5941176414

> <CNN_VS>
3.8832428455

> <CNNaffinity_variance>
0.1945654303

$$$$



 46 53  0  0  0  0  0  0  0  0999 V2000
  -22.2822    9.5109   27.0285 C   0  0  0  0  0  0  0  0  0  0  0  0
  -22.1011    9.1376   28.4809 C   0  0  0  0  0  0  0  0  0  0  0  0
  -23.6277    9.7470   26.8371 O   0  0  0  0  0  0  0  0  0  0  0  0
  -23.8692   11.1011   26.8452 C   0  0  0  0  0  0  0  0  0  0  0  0
  -24.5572   11.4073   25.6706 O   0  0  0  0  0  0  0  0  0  0  0  0
  -24.7908   11.3952   27.9841 C   0  0  0  0  0  0  0  0  0  0  0  0
  -26.2386   11.6095   27.5343 C   0  0  0  0  0  0  0  0  0  0  0  0
  -26.8308   12.3781   28.7043 C   0  0  0  0  0  0  0  0  0  0  0  0
  -25.6691   12.8814   29.5331 C   0  0  0  0  0  0  0  0  0  0  0  0
  -24.5463   12.6662   28.6391 N   0  0  0  0  0  0  0  0  0  0  0  0
  -23.3979   13.4658   28.3822 C   0  0  0  0  0  0  0  0  0  0  0  0
  -23.0323   14.3741   29.1742 O   0  0  0  0  0  0  0  0  0  0  0  0
  -22.6163   13.2151   27.1448 C   0  0  0  0  0  0  0  0  0  0  0  0
  -22.6096   11.7989   26.9347 N   0  0  0  0  0  0  0  0  0  0  0  0
  -21.5898   10.8017   26.7752 C   0  0  0  0  0  0  0  0  0  0  0  0
  -20.3866   11.0243   26.4839 O   0  0  0  0  0  0  0  0  0  0  0  0
  -24.2221   10.8607   24.9145 H   0  0  0  0  0  0  0  0  0  0  0  0
  -22.7064    7.4035   25.7200 C   0  0  0  0  0  0  0  0  0  0  0  0
  -23.9071    7.3152   26.0848 O   0  0  0  0  0  0  0  0  0  0  0  0
  -21.8599    8.4504   26.1446 N   0  0  0  0  0  0  0  0  0  0  0  0
  -20.8644    8.4206   25.7709 H   0  0  0  0  0  0  0  0  0  0  0  0
  -24.7024    4.2522   23.5956 C   0  0  0  0  0  0  0  0  0  0  0  0
  -23.2829    4.3977   23.7494 N   0  0  0  0  0  0  0  0  0  0  0  0
  -22.8707    5.0291   24.9494 C   0  0  0  0  0  0  0  0  0  0  0  0
  -22.1935    6.3432   24.8037 C   0  0  0  0  0  0  0  0  0  0  0  0
  -22.1027    6.8516   23.3786 C   0  0  0  0  0  0  0  0  0  0  0  0
  -21.5156    5.7070   22.6121 C   0  0  0  0  0  0  0  0  0  0  0  0
  -22.5644    4.6313   22.5615 C   0  0  0  0  0  0  0  0  0  0  0  0
  -21.9677    3.3836   21.9192 C   0  0  0  0  0  0  0  0  0  0  0  0
  -21.5423    3.7315   20.5409 C   0  0  0  0  0  0  0  0  0  0  0  0
  -21.4250    3.0772   19.3325 C   0  0  0  0  0  0  0  0  0  0  0  0
  -20.9632    3.9678   18.4034 N   0  0  0  0  0  0  0  0  0  0  0  0
  -20.7819    5.1702   18.9798 C   0  0  0  0  0  0  0  0  0  0  0  0
  -20.3527    6.4174   18.5794 C   0  0  0  0  0  0  0  0  0  0  0  0
  -20.2941    7.4692   19.4985 C   0  0  0  0  0  0  0  0  0  0  0  0
  -20.6665    7.2782   20.8301 C   0  0  0  0  0  0  0  0  0  0  0  0
  -21.1000    6.0206   21.2372 C   0  0  0  0  0  0  0  0  0  0  0  0
  -21.1391    5.0224   20.2968 C   0  0  0  0  0  0  0  0  0  0  0  0
  -20.7668    3.7854   17.3883 H   0  0  0  0  0  0  0  0  0  0  0  0
  -23.1661   13.9952   25.9726 C   0  0  0  0  0  0  0  0  0  0  0  0
  -22.1058   13.9350   24.9070 C   0  0  0  0  0  0  0  0  0  0  0  0
  -22.0672   12.7645   24.1642 C   0  0  0  0  0  0  0  0  0  0  0  0
  -21.1284   12.6082   23.1582 C   0  0  0  0  0  0  0  0  0  0  0  0
  -20.2365   13.6464   22.9174 C   0  0  0  0  0  0  0  0  0  0  0  0
  -20.3019   14.8029   23.6778 C   0  0  0  0  0  0  0  0  0  0  0  0
  -21.2322   14.9762   24.6857 C   0  0  0  0  0  0  0  0  0  0  0  0
 22 23  1  0
 23 24  1  0
 24 25  1  0
 25 26  1  0
 26 27  1  0
 27 28  1  0
 28 29  1  0
 29 30  1  0
 30 31  2  0
 31 32  1  0
 32 33  1  0
 33 34  2  0
 34 35  1  0
 35 36  2  0
 36 37  1  0
 37 38  2  0
 25 18  1  0
 18 19  2  0
 18 20  1  0
  1 20  1  0
  1  2  1  0
  1  3  1  0
  3  4  1  0
  4  5  1  0
  4  6  1  0
  6  7  1  0
  7  8  1  0
  8  9  1  0
  9 10  1  0
 10 11  1  0
 11 12  2  0
 11 13  1  0
 13 40  1  0
 40 41  1  0
 41 42  2  0
 42 43  1  0
 43 44  2  0
 44 45  1  0
 45 46  2  0
 13 14  1  0
 14 15  1  0
 15 16  2  0
 28 23  1  0
 37 27  1  0
 38 30  1  0
 38 33  1  0
 15  1  1  0
 14  4  1  0
 10  6  1  0
 46 41  1  0
 32 39  1  0
 20 21  1  0
  5 17  1  0
M  END
> <minimizedAffinity>
12.99173

> <CNNscore>
0.4692199528

> <CNNaffinity>
7.3650717735

> <CNN_VS>
3.4558386803

> <CNNaffinity_variance>
0.9244813919

$$$$



 46 53  0  0  0  0  0  0  0  0999 V2000
  -22.9815    9.4238   26.7536 C   0  0  0  0  0  0  0  0  0  0  0  0
  -22.5532    9.0162   28.1435 C   0  0  0  0  0  0  0  0  0  0  0  0
  -24.2486    9.9582   26.8620 O   0  0  0  0  0  0  0  0  0  0  0  0
  -24.1773   11.3318   26.8562 C   0  0  0  0  0  0  0  0  0  0  0  0
  -25.0357   11.7881   25.8553 O   0  0  0  0  0  0  0  0  0  0  0  0
  -24.7197   11.8241   28.1588 C   0  0  0  0  0  0  0  0  0  0  0  0
  -26.1488   12.3608   28.0403 C   0  0  0  0  0  0  0  0  0  0  0  0
  -26.2675   13.2408   29.2740 C   0  0  0  0  0  0  0  0  0  0  0  0
  -24.8630   13.4669   29.7898 C   0  0  0  0  0  0  0  0  0  0  0  0
  -24.0555   13.0055   28.6756 N   0  0  0  0  0  0  0  0  0  0  0  0
  -22.8517   13.5257   28.1236 C   0  0  0  0  0  0  0  0  0  0  0  0
  -22.1207   14.3262   28.7644 O   0  0  0  0  0  0  0  0  0  0  0  0
  -22.4554   13.1075   26.7550 C   0  0  0  0  0  0  0  0  0  0  0  0
  -22.8099   11.7269   26.6209 N   0  0  0  0  0  0  0  0  0  0  0  0
  -22.1006   10.5254   26.2841 C   0  0  0  0  0  0  0  0  0  0  0  0
  -20.9800   10.4712   25.7155 O   0  0  0  0  0  0  0  0  0  0  0  0
  -25.0151   11.1815   25.0714 H   0  0  0  0  0  0  0  0  0  0  0  0
  -23.8055    8.2631   24.6782 C   0  0  0  0  0  0  0  0  0  0  0  0
  -24.5377    9.2236   24.3266 O   0  0  0  0  0  0  0  0  0  0  0  0
  -23.0212    8.2973   25.8516 N   0  0  0  0  0  0  0  0  0  0  0  0
  -22.4423    7.4265   26.0464 H   0  0  0  0  0  0  0  0  0  0  0  0
  -20.8703    6.7732   21.9229 C   0  0  0  0  0  0  0  0  0  0  0  0
  -22.2202    6.3032   22.0524 N   0  0  0  0  0  0  0  0  0  0  0  0
  -23.1582    7.2794   22.4710 C   0  0  0  0  0  0  0  0  0  0  0  0
  -23.7916    7.0593   23.7965 C   0  0  0  0  0  0  0  0  0  0  0  0
  -23.2840    5.8421   24.5438 C   0  0  0  0  0  0  0  0  0  0  0  0
  -23.3963    4.7242   23.5539 C   0  0  0  0  0  0  0  0  0  0  0  0
  -22.3602    4.9737   22.4937 C   0  0  0  0  0  0  0  0  0  0  0  0
  -22.5285    3.9448   21.3809 C   0  0  0  0  0  0  0  0  0  0  0  0
  -22.3303    2.5953   21.9651 C   0  0  0  0  0  0  0  0  0  0  0  0
  -21.8616    1.3733   21.5300 C   0  0  0  0  0  0  0  0  0  0  0  0
  -21.9299    0.4901   22.5717 N   0  0  0  0  0  0  0  0  0  0  0  0
  -22.4272    1.1090   23.6581 C   0  0  0  0  0  0  0  0  0  0  0  0
  -22.7221    0.7633   24.9595 C   0  0  0  0  0  0  0  0  0  0  0  0
  -23.2490    1.7150   25.8376 C   0  0  0  0  0  0  0  0  0  0  0  0
  -23.4850    3.0248   25.4164 C   0  0  0  0  0  0  0  0  0  0  0  0
  -23.1885    3.3767   24.1036 C   0  0  0  0  0  0  0  0  0  0  0  0
  -22.6733    2.4060   23.2823 C   0  0  0  0  0  0  0  0  0  0  0  0
  -21.6491   -0.5216   22.5688 H   0  0  0  0  0  0  0  0  0  0  0  0
  -23.0780   13.9942   25.7009 C   0  0  0  0  0  0  0  0  0  0  0  0
  -22.0644   14.0872   24.5931 C   0  0  0  0  0  0  0  0  0  0  0  0
  -22.0407   13.0181   23.7100 C   0  0  0  0  0  0  0  0  0  0  0  0
  -21.1443   13.0059   22.6544 C   0  0  0  0  0  0  0  0  0  0  0  0
  -20.2794   14.0837   22.5074 C   0  0  0  0  0  0  0  0  0  0  0  0
  -20.3289   15.1362   23.4073 C   0  0  0  0  0  0  0  0  0  0  0  0
  -21.2168   15.1651   24.4666 C   0  0  0  0  0  0  0  0  0  0  0  0
 22 23  1  0
 23 24  1  0
 24 25  1  0
 25 26  1  0
 26 27  1  0
 27 28  1  0
 28 29  1  0
 29 30  1  0
 30 31  2  0
 31 32  1  0
 32 33  1  0
 33 34  2  0
 34 35  1  0
 35 36  2  0
 36 37  1  0
 37 38  2  0
 25 18  1  0
 18 19  2  0
 18 20  1  0
  1 20  1  0
  1  2  1  0
  1  3  1  0
  3  4  1  0
  4  5  1  0
  4  6  1  0
  6  7  1  0
  7  8  1  0
  8  9  1  0
  9 10  1  0
 10 11  1  0
 11 12  2  0
 11 13  1  0
 13 40  1  0
 40 41  1  0
 41 42  2  0
 42 43  1  0
 43 44  2  0
 44 45  1  0
 45 46  2  0
 13 14  1  0
 14 15  1  0
 15 16  2  0
 28 23  1  0
 37 27  1  0
 38 30  1  0
 38 33  1  0
 15  1  1  0
 14  4  1  0
 10  6  1  0
 46 41  1  0
 32 39  1  0
 20 21  1  0
  5 17  1  0
M  END
> <minimizedAffinity>
20.78336

> <CNNscore>
0.4489014447

> <CNNaffinity>
7.3084130287

> <CNN_VS>
3.2807571888

> <CNNaffinity_variance>
1.3394778967

$$$$



 46 53  0  0  0  0  0  0  0  0999 V2000
  -22.2197   11.4100   24.6521 C   0  0  0  0  0  0  0  0  0  0  0  0
  -23.3414   12.1439   25.3483 C   0  0  0  0  0  0  0  0  0  0  0  0
  -21.3335   11.0066   25.6292 O   0  0  0  0  0  0  0  0  0  0  0  0
  -21.5389    9.6793   25.9257 C   0  0  0  0  0  0  0  0  0  0  0  0
  -20.3109    9.0298   25.7954 O   0  0  0  0  0  0  0  0  0  0  0  0
  -21.9348    9.5870   27.3637 C   0  0  0  0  0  0  0  0  0  0  0  0
  -20.7850    9.1315   28.2665 C   0  0  0  0  0  0  0  0  0  0  0  0
  -21.5205    8.6207   29.4946 C   0  0  0  0  0  0  0  0  0  0  0  0
  -22.9711    8.4496   29.0992 C   0  0  0  0  0  0  0  0  0  0  0  0
  -22.9017    8.5451   27.6526 N   0  0  0  0  0  0  0  0  0  0  0  0
  -23.5907    7.8204   26.6405 C   0  0  0  0  0  0  0  0  0  0  0  0
  -24.6424    7.1736   26.8883 O   0  0  0  0  0  0  0  0  0  0  0  0
  -23.0475    7.8333   25.2587 C   0  0  0  0  0  0  0  0  0  0  0  0
  -22.5326    9.1484   25.0244 N   0  0  0  0  0  0  0  0  0  0  0  0
  -22.7647   10.1688   24.0420 C   0  0  0  0  0  0  0  0  0  0  0  0
  -23.3140    9.9975   22.9236 O   0  0  0  0  0  0  0  0  0  0  0  0
  -19.7946    9.4036   25.0360 H   0  0  0  0  0  0  0  0  0  0  0  0
  -21.3974   13.6537   23.8628 C   0  0  0  0  0  0  0  0  0  0  0  0
  -21.8808   14.2736   24.8449 O   0  0  0  0  0  0  0  0  0  0  0  0
  -21.5277   12.2564   23.7093 N   0  0  0  0  0  0  0  0  0  0  0  0
  -21.0778   11.8429   22.8386 H   0  0  0  0  0  0  0  0  0  0  0  0
  -17.7041   15.8332   24.0547 C   0  0  0  0  0  0  0  0  0  0  0  0
  -18.6645   15.8940   22.9898 N   0  0  0  0  0  0  0  0  0  0  0  0
  -20.0093   15.6786   23.3813 C   0  0  0  0  0  0  0  0  0  0  0  0
  -20.6655   14.4597   22.8423 C   0  0  0  0  0  0  0  0  0  0  0  0
  -19.7660   13.5807   21.9962 C   0  0  0  0  0  0  0  0  0  0  0  0
  -19.1666   14.5177   20.9936 C   0  0  0  0  0  0  0  0  0  0  0  0
  -18.2201   15.4129   21.7436 C   0  0  0  0  0  0  0  0  0  0  0  0
  -17.6917   16.4844   20.7959 C   0  0  0  0  0  0  0  0  0  0  0  0
  -16.9692   15.8083   19.6903 C   0  0  0  0  0  0  0  0  0  0  0  0
  -15.9088   16.1012   18.8584 C   0  0  0  0  0  0  0  0  0  0  0  0
  -15.7139   15.0396   18.0189 N   0  0  0  0  0  0  0  0  0  0  0  0
  -16.6158   14.0780   18.2881 C   0  0  0  0  0  0  0  0  0  0  0  0
  -16.9160   12.8233   17.8025 C   0  0  0  0  0  0  0  0  0  0  0  0
  -17.9690   12.0888   18.3558 C   0  0  0  0  0  0  0  0  0  0  0  0
  -18.7316   12.6081   19.4033 C   0  0  0  0  0  0  0  0  0  0  0  0
  -18.4311   13.8741   19.8954 C   0  0  0  0  0  0  0  0  0  0  0  0
  -17.3884   14.5536   19.3182 C   0  0  0  0  0  0  0  0  0  0  0  0
  -14.9866   14.9467   17.2674 H   0  0  0  0  0  0  0  0  0  0  0  0
  -22.0233    6.7404   25.0540 C   0  0  0  0  0  0  0  0  0  0  0  0
  -22.6794    5.7273   24.1559 C   0  0  0  0  0  0  0  0  0  0  0  0
  -22.1861    5.6643   22.8613 C   0  0  0  0  0  0  0  0  0  0  0  0
  -22.7213    4.7645   21.9547 C   0  0  0  0  0  0  0  0  0  0  0  0
  -23.7551    3.9362   22.3751 C   0  0  0  0  0  0  0  0  0  0  0  0
  -24.2249    4.0245   23.6757 C   0  0  0  0  0  0  0  0  0  0  0  0
  -23.7027    4.9165   24.5939 C   0  0  0  0  0  0  0  0  0  0  0  0
 22 23  1  0
 23 24  1  0
 24 25  1  0
 25 26  1  0
 26 27  1  0
 27 28  1  0
 28 29  1  0
 29 30  1  0
 30 31  2  0
 31 32  1  0
 32 33  1  0
 33 34  2  0
 34 35  1  0
 35 36  2  0
 36 37  1  0
 37 38  2  0
 25 18  1  0
 18 19  2  0
 18 20  1  0
  1 20  1  0
  1  2  1  0
  1  3  1  0
  3  4  1  0
  4  5  1  0
  4  6  1  0
  6  7  1  0
  7  8  1  0
  8  9  1  0
  9 10  1  0
 10 11  1  0
 11 12  2  0
 11 13  1  0
 13 40  1  0
 40 41  1  0
 41 42  2  0
 42 43  1  0
 43 44  2  0
 44 45  1  0
 45 46  2  0
 13 14  1  0
 14 15  1  0
 15 16  2  0
 28 23  1  0
 37 27  1  0
 38 30  1  0
 38 33  1  0
 15  1  1  0
 14  4  1  0
 10  6  1  0
 46 41  1  0
 32 39  1  0
 20 21  1  0
  5 17  1  0
M  END
> <minimizedAffinity>
-5.47106

> <CNNscore>
0.4040059149

> <CNNaffinity>
7.1073226929

> <CNN_VS>
2.8714003563

> <CNNaffinity_variance>
0.2097559422

$$$$



 46 53  0  0  0  0  0  0  0  0999 V2000
  -21.9797   11.8484   24.8192 C   0  0  0  0  0  0  0  0  0  0  0  0
  -23.2325   12.4274   25.4331 C   0  0  0  0  0  0  0  0  0  0  0  0
  -21.2801   11.2315   25.8354 O   0  0  0  0  0  0  0  0  0  0  0  0
  -21.4985    9.8741   25.7945 C   0  0  0  0  0  0  0  0  0  0  0  0
  -20.2494    9.2533   25.7611 O   0  0  0  0  0  0  0  0  0  0  0  0
  -22.1529    9.4765   27.0777 C   0  0  0  0  0  0  0  0  0  0  0  0
  -21.1791    8.8215   28.0612 C   0  0  0  0  0  0  0  0  0  0  0  0
  -22.1157    8.0652   28.9891 C   0  0  0  0  0  0  0  0  0  0  0  0
  -23.4614    8.0022   28.3000 C   0  0  0  0  0  0  0  0  0  0  0  0
  -23.1261    8.4088   26.9477 N   0  0  0  0  0  0  0  0  0  0  0  0
  -23.5927    7.9298   25.6918 C   0  0  0  0  0  0  0  0  0  0  0  0
  -24.6529    7.2577   25.5915 O   0  0  0  0  0  0  0  0  0  0  0  0
  -22.8017    8.2359   24.4730 C   0  0  0  0  0  0  0  0  0  0  0  0
  -22.2906    9.5641   24.6293 N   0  0  0  0  0  0  0  0  0  0  0  0
  -22.3649   10.7763   23.8643 C   0  0  0  0  0  0  0  0  0  0  0  0
  -22.6906   10.8589   22.6523 O   0  0  0  0  0  0  0  0  0  0  0  0
  -19.6116    9.7767   25.2114 H   0  0  0  0  0  0  0  0  0  0  0  0
  -19.9757   12.5960   23.4931 C   0  0  0  0  0  0  0  0  0  0  0  0
  -19.5614   11.4249   23.2947 O   0  0  0  0  0  0  0  0  0  0  0  0
  -21.1488   12.8708   24.2289 N   0  0  0  0  0  0  0  0  0  0  0  0
  -21.4002   13.8994   24.3312 H   0  0  0  0  0  0  0  0  0  0  0  0
  -19.4124   13.9097   19.4454 C   0  0  0  0  0  0  0  0  0  0  0  0
  -18.6592   14.3470   20.5862 N   0  0  0  0  0  0  0  0  0  0  0  0
  -18.5200   13.3857   21.6181 C   0  0  0  0  0  0  0  0  0  0  0  0
  -19.1703   13.7105   22.9135 C   0  0  0  0  0  0  0  0  0  0  0  0
  -19.9531   15.0085   22.9185 C   0  0  0  0  0  0  0  0  0  0  0  0
  -18.9941   16.0233   22.3775 C   0  0  0  0  0  0  0  0  0  0  0  0
  -18.7992   15.7072   20.9208 C   0  0  0  0  0  0  0  0  0  0  0  0
  -17.7175   16.6201   20.3534 C   0  0  0  0  0  0  0  0  0  0  0  0
  -18.1723   18.0245   20.5032 C   0  0  0  0  0  0  0  0  0  0  0  0
  -17.9930   19.2139   19.8283 C   0  0  0  0  0  0  0  0  0  0  0  0
  -18.6949   20.1894   20.4807 N   0  0  0  0  0  0  0  0  0  0  0  0
  -19.3168   19.6609   21.5506 C   0  0  0  0  0  0  0  0  0  0  0  0
  -20.1394   20.1191   22.5574 C   0  0  0  0  0  0  0  0  0  0  0  0
  -20.6096   19.2387   23.5363 C   0  0  0  0  0  0  0  0  0  0  0  0
  -20.2577   17.8882   23.5135 C   0  0  0  0  0  0  0  0  0  0  0  0
  -19.4275   17.4228   22.4988 C   0  0  0  0  0  0  0  0  0  0  0  0
  -18.9935   18.3270   21.5628 C   0  0  0  0  0  0  0  0  0  0  0  0
  -18.7655   21.2045   20.2224 H   0  0  0  0  0  0  0  0  0  0  0  0
  -21.7260    7.2010   24.2343 C   0  0  0  0  0  0  0  0  0  0  0  0
  -22.3645    6.1347   23.3865 C   0  0  0  0  0  0  0  0  0  0  0  0
  -23.5527    5.6116   23.8742 C   0  0  0  0  0  0  0  0  0  0  0  0
  -24.2211    4.6248   23.1690 C   0  0  0  0  0  0  0  0  0  0  0  0
  -23.6730    4.1792   21.9721 C   0  0  0  0  0  0  0  0  0  0  0  0
  -22.4841    4.7229   21.5128 C   0  0  0  0  0  0  0  0  0  0  0  0
  -21.8035    5.7083   22.2034 C   0  0  0  0  0  0  0  0  0  0  0  0
 22 23  1  0
 23 24  1  0
 24 25  1  0
 25 26  1  0
 26 27  1  0
 27 28  1  0
 28 29  1  0
 29 30  1  0
 30 31  2  0
 31 32  1  0
 32 33  1  0
 33 34  2  0
 34 35  1  0
 35 36  2  0
 36 37  1  0
 37 38  2  0
 25 18  1  0
 18 19  2  0
 18 20  1  0
  1 20  1  0
  1  2  1  0
  1  3  1  0
  3  4  1  0
  4  5  1  0
  4  6  1  0
  6  7  1  0
  7  8  1  0
  8  9  1  0
  9 10  1  0
 10 11  1  0
 11 12  2  0
 11 13  1  0
 13 40  1  0
 40 41  1  0
 41 42  2  0
 42 43  1  0
 43 44  2  0
 44 45  1  0
 45 46  2  0
 13 14  1  0
 14 15  1  0
 15 16  2  0
 28 23  1  0
 37 27  1  0
 38 30  1  0
 38 33  1  0
 15  1  1  0
 14  4  1  0
 10  6  1  0
 46 41  1  0
 32 39  1  0
 20 21  1  0
  5 17  1  0
M  END
> <minimizedAffinity>
-5.38665

> <CNNscore>
0.3551550806

> <CNNaffinity>
6.8380331993

> <CNN_VS>
2.4285621643

> <CNNaffinity_variance>
0.2388171256

$$$$



 46 53  0  0  0  0  0  0  0  0999 V2000
  -21.4102   13.4562   24.6737 C   0  0  0  0  0  0  0  0  0  0  0  0
  -22.5026   13.7815   25.6649 C   0  0  0  0  0  0  0  0  0  0  0  0
  -20.6614   12.4342   25.2191 O   0  0  0  0  0  0  0  0  0  0  0  0
  -21.0339   11.2338   24.6603 C   0  0  0  0  0  0  0  0  0  0  0  0
  -19.8765   10.6254   24.1733 O   0  0  0  0  0  0  0  0  0  0  0  0
  -21.5613   10.3633   25.7543 C   0  0  0  0  0  0  0  0  0  0  0  0
  -20.5506    9.3074   26.2104 C   0  0  0  0  0  0  0  0  0  0  0  0
  -21.4412    8.2762   26.8840 C   0  0  0  0  0  0  0  0  0  0  0  0
  -22.8617    8.5760   26.4572 C   0  0  0  0  0  0  0  0  0  0  0  0
  -22.6566    9.4994   25.3565 N   0  0  0  0  0  0  0  0  0  0  0  0
  -23.3288    9.6198   24.1084 C   0  0  0  0  0  0  0  0  0  0  0  0
  -24.4618    9.1056   23.9137 O   0  0  0  0  0  0  0  0  0  0  0  0
  -22.6689   10.3736   23.0125 C   0  0  0  0  0  0  0  0  0  0  0  0
  -21.9966   11.4846   23.6154 N   0  0  0  0  0  0  0  0  0  0  0  0
  -22.0307   12.9086   23.4388 C   0  0  0  0  0  0  0  0  0  0  0  0
  -22.4955   13.5117   22.4378 O   0  0  0  0  0  0  0  0  0  0  0  0
  -19.2586   11.3005   23.7919 H   0  0  0  0  0  0  0  0  0  0  0  0
  -20.9809   15.7718   23.7866 C   0  0  0  0  0  0  0  0  0  0  0  0
  -22.1589   15.9261   23.3733 O   0  0  0  0  0  0  0  0  0  0  0  0
  -20.5513   14.5906   24.4294 N   0  0  0  0  0  0  0  0  0  0  0  0
  -19.5326   14.5748   24.7352 H   0  0  0  0  0  0  0  0  0  0  0  0
  -19.3127   18.6573   26.4919 C   0  0  0  0  0  0  0  0  0  0  0  0
  -19.2313   18.6990   25.0596 N   0  0  0  0  0  0  0  0  0  0  0  0
  -20.3273   18.1130   24.3787 C   0  0  0  0  0  0  0  0  0  0  0  0
  -20.0304   16.9019   23.5714 C   0  0  0  0  0  0  0  0  0  0  0  0
  -18.5929   16.4276   23.6508 C   0  0  0  0  0  0  0  0  0  0  0  0
  -17.7810   17.6491   23.3492 C   0  0  0  0  0  0  0  0  0  0  0  0
  -17.9361   18.5772   24.5216 C   0  0  0  0  0  0  0  0  0  0  0  0
  -17.2486   19.9006   24.2035 C   0  0  0  0  0  0  0  0  0  0  0  0
  -15.8089   19.6291   23.9686 C   0  0  0  0  0  0  0  0  0  0  0  0
  -14.6201   20.3081   24.1360 C   0  0  0  0  0  0  0  0  0  0  0  0
  -13.5993   19.4978   23.7221 N   0  0  0  0  0  0  0  0  0  0  0  0
  -14.0982   18.3230   23.2959 C   0  0  0  0  0  0  0  0  0  0  0  0
  -13.5921   17.1486   22.7814 C   0  0  0  0  0  0  0  0  0  0  0  0
  -14.4538   16.1025   22.4384 C   0  0  0  0  0  0  0  0  0  0  0  0
  -15.8337   16.2261   22.6089 C   0  0  0  0  0  0  0  0  0  0  0  0
  -16.3474   17.4103   23.1278 C   0  0  0  0  0  0  0  0  0  0  0  0
  -15.4597   18.4060   23.4484 C   0  0  0  0  0  0  0  0  0  0  0  0
  -12.5726   19.7171   23.7199 H   0  0  0  0  0  0  0  0  0  0  0  0
  -21.7547    9.4858   22.1993 C   0  0  0  0  0  0  0  0  0  0  0  0
  -21.4481   10.2547   20.9431 C   0  0  0  0  0  0  0  0  0  0  0  0
  -20.1127   10.2870   20.5701 C   0  0  0  0  0  0  0  0  0  0  0  0
  -19.7243   10.9682   19.4285 C   0  0  0  0  0  0  0  0  0  0  0  0
  -20.7004   11.6108   18.6763 C   0  0  0  0  0  0  0  0  0  0  0  0
  -22.0259   11.5591   19.0768 C   0  0  0  0  0  0  0  0  0  0  0  0
  -22.4316   10.8841   20.2131 C   0  0  0  0  0  0  0  0  0  0  0  0
 22 23  1  0
 23 24  1  0
 24 25  1  0
 25 26  1  0
 26 27  1  0
 27 28  1  0
 28 29  1  0
 29 30  1  0
 30 31  2  0
 31 32  1  0
 32 33  1  0
 33 34  2  0
 34 35  1  0
 35 36  2  0
 36 37  1  0
 37 38  2  0
 25 18  1  0
 18 19  2  0
 18 20  1  0
  1 20  1  0
  1  2  1  0
  1  3  1  0
  3  4  1  0
  4  5  1  0
  4  6  1  0
  6  7  1  0
  7  8  1  0
  8  9  1  0
  9 10  1  0
 10 11  1  0
 11 12  2  0
 11 13  1  0
 13 40  1  0
 40 41  1  0
 41 42  2  0
 42 43  1  0
 43 44  2  0
 44 45  1  0
 45 46  2  0
 13 14  1  0
 14 15  1  0
 15 16  2  0
 28 23  1  0
 37 27  1  0
 38 30  1  0
 38 33  1  0
 15  1  1  0
 14  4  1  0
 10  6  1  0
 46 41  1  0
 32 39  1  0
 20 21  1  0
  5 17  1  0
M  END
> <minimizedAffinity>
-6.70234

> <CNNscore>
0.3490417302

> <CNNaffinity>
6.6194062233

> <CNN_VS>
2.3104488850

> <CNNaffinity_variance>
0.2256005257

$$$$



 46 53  0  0  0  0  0  0  0  0999 V2000
  -20.5040   12.2294   23.9053 C   0  0  0  0  0  0  0  0  0  0  0  0
  -19.9141   12.1852   25.2952 C   0  0  0  0  0  0  0  0  0  0  0  0
  -21.3508   13.3173   23.8606 O   0  0  0  0  0  0  0  0  0  0  0  0
  -20.7224   14.3722   23.2408 C   0  0  0  0  0  0  0  0  0  0  0  0
  -21.5564   14.8046   22.2092 O   0  0  0  0  0  0  0  0  0  0  0  0
  -20.6258   15.4911   24.2265 C   0  0  0  0  0  0  0  0  0  0  0  0
  -21.6754   16.5807   23.9904 C   0  0  0  0  0  0  0  0  0  0  0  0
  -21.0704   17.7746   24.7107 C   0  0  0  0  0  0  0  0  0  0  0  0
  -19.6158   17.4441   24.9652 C   0  0  0  0  0  0  0  0  0  0  0  0
  -19.4173   16.2855   24.1140 N   0  0  0  0  0  0  0  0  0  0  0  0
  -18.3126   15.9104   23.2996 C   0  0  0  0  0  0  0  0  0  0  0  0
  -17.1692   16.4128   23.4617 O   0  0  0  0  0  0  0  0  0  0  0  0
  -18.5235   14.8991   22.2330 C   0  0  0  0  0  0  0  0  0  0  0  0
  -19.4393   13.9289   22.7524 N   0  0  0  0  0  0  0  0  0  0  0  0
  -19.4156   12.5049   22.9310 C   0  0  0  0  0  0  0  0  0  0  0  0
  -18.6252   11.7084   22.3628 O   0  0  0  0  0  0  0  0  0  0  0  0
  -22.0079   14.0352   21.7766 H   0  0  0  0  0  0  0  0  0  0  0  0
  -21.8548   10.7853   22.3487 C   0  0  0  0  0  0  0  0  0  0  0  0
  -21.7773   11.5955   21.3896 O   0  0  0  0  0  0  0  0  0  0  0  0
  -21.2558   11.0347   23.6025 N   0  0  0  0  0  0  0  0  0  0  0  0
  -21.3885   10.2772   24.3373 H   0  0  0  0  0  0  0  0  0  0  0  0
  -20.7818    7.1219   20.3851 C   0  0  0  0  0  0  0  0  0  0  0  0
  -22.1016    7.4978   20.8055 N   0  0  0  0  0  0  0  0  0  0  0  0
  -22.3610    8.8910   20.7950 C   0  0  0  0  0  0  0  0  0  0  0  0
  -22.6167    9.5237   22.1144 C   0  0  0  0  0  0  0  0  0  0  0  0
  -22.4945    8.5853   23.2984 C   0  0  0  0  0  0  0  0  0  0  0  0
  -23.3583    7.4166   22.9374 C   0  0  0  0  0  0  0  0  0  0  0  0
  -22.6694    6.6950   21.8129 C   0  0  0  0  0  0  0  0  0  0  0  0
  -23.5778    5.5800   21.3061 C   0  0  0  0  0  0  0  0  0  0  0  0
  -23.8242    4.6390   22.4266 C   0  0  0  0  0  0  0  0  0  0  0  0
  -24.0769    3.2903   22.5663 C   0  0  0  0  0  0  0  0  0  0  0  0
  -24.2180    3.0142   23.8981 N   0  0  0  0  0  0  0  0  0  0  0  0
  -24.0633    4.1433   24.6134 C   0  0  0  0  0  0  0  0  0  0  0  0
  -24.0910    4.4956   25.9458 C   0  0  0  0  0  0  0  0  0  0  0  0
  -23.8776    5.8238   26.3264 C   0  0  0  0  0  0  0  0  0  0  0  0
  -23.6339    6.8121   25.3713 C   0  0  0  0  0  0  0  0  0  0  0  0
  -23.6054    6.4597   24.0258 C   0  0  0  0  0  0  0  0  0  0  0  0
  -23.8208    5.1433   23.7050 C   0  0  0  0  0  0  0  0  0  0  0  0
  -24.4163    2.0817   24.3379 H   0  0  0  0  0  0  0  0  0  0  0  0
  -18.9899   15.5386   20.9452 C   0  0  0  0  0  0  0  0  0  0  0  0
  -18.6807   17.0046   21.0805 C   0  0  0  0  0  0  0  0  0  0  0  0
  -17.3584   17.3617   20.8627 C   0  0  0  0  0  0  0  0  0  0  0  0
  -16.9689   18.6870   20.9627 C   0  0  0  0  0  0  0  0  0  0  0  0
  -17.9306   19.6376   21.2836 C   0  0  0  0  0  0  0  0  0  0  0  0
  -19.2433   19.2475   21.4949 C   0  0  0  0  0  0  0  0  0  0  0  0
  -19.6498   17.9295   21.3994 C   0  0  0  0  0  0  0  0  0  0  0  0
 22 23  1  0
 23 24  1  0
 24 25  1  0
 25 26  1  0
 26 27  1  0
 27 28  1  0
 28 29  1  0
 29 30  1  0
 30 31  2  0
 31 32  1  0
 32 33  1  0
 33 34  2  0
 34 35  1  0
 35 36  2  0
 36 37  1  0
 37 38  2  0
 25 18  1  0
 18 19  2  0
 18 20  1  0
  1 20  1  0
  1  2  1  0
  1  3  1  0
  3  4  1  0
  4  5  1  0
  4  6  1  0
  6  7  1  0
  7  8  1  0
  8  9  1  0
  9 10  1  0
 10 11  1  0
 11 12  2  0
 11 13  1  0
 13 40  1  0
 40 41  1  0
 41 42  2  0
 42 43  1  0
 43 44  2  0
 44 45  1  0
 45 46  2  0
 13 14  1  0
 14 15  1  0
 15 16  2  0
 28 23  1  0
 37 27  1  0
 38 30  1  0
 38 33  1  0
 15  1  1  0
 14  4  1  0
 10  6  1  0
 46 41  1  0
 32 39  1  0
 20 21  1  0
  5 17  1  0
M  END
> <minimizedAffinity>
-6.03803

> <CNNscore>
0.3385381401

> <CNNaffinity>
7.1410369873

> <CNN_VS>
2.4175133705

> <CNNaffinity_variance>
0.4074893892

$$$$
