


 34 37  0  0  0  0  0  0  0  0999 V2000
  -22.8556    7.5745   26.9320 O   0  0  0  0  0  0  0  0  0  0  0  0
  -22.8046    5.1131   22.6021 C   0  0  0  0  0  0  0  0  0  0  0  0
  -23.4173    3.8868   22.3263 C   0  0  0  0  0  0  0  0  0  0  0  0
  -24.0403    3.4725   23.4613 N   0  0  0  0  0  0  0  0  0  0  0  0
  -23.8302    4.3949   24.4100 C   0  0  0  0  0  0  0  0  0  0  0  0
  -24.2676    4.4155   25.7350 C   0  0  0  0  0  0  0  0  0  0  0  0
  -23.9199    5.4864   26.5272 C   0  0  0  0  0  0  0  0  0  0  0  0
  -23.1587    6.5288   26.0517 C   0  0  0  0  0  0  0  0  0  0  0  0
  -22.7249    6.5113   24.7430 C   0  0  0  0  0  0  0  0  0  0  0  0
  -23.0702    5.4332   23.9315 C   0  0  0  0  0  0  0  0  0  0  0  0
  -24.5760    2.5706   23.5079 H   0  0  0  0  0  0  0  0  0  0  0  0
  -22.0106    5.9388   21.6636 C   0  0  0  0  0  0  0  0  0  0  0  0
  -20.7542    5.8987   19.5984 N   0  0  0  0  0  0  0  0  0  0  0  0
  -21.2799    5.0654   20.6549 C   0  0  0  0  0  0  0  0  0  0  0  0
  -21.5082    6.5014   19.2279 H   0  0  0  0  0  0  0  0  0  0  0  0
  -20.3409    5.2536   18.8623 H   0  0  0  0  0  0  0  0  0  0  0  0
  -19.9449    6.4390   19.9970 H   0  0  0  0  0  0  0  0  0  0  0  0
  -23.8225    8.5078   27.2584 C   0  0  0  0  0  0  0  0  0  0  0  0
  -23.3277    9.8840   27.3132 C   0  0  0  0  0  0  0  0  0  0  0  0
  -23.9920   10.6416   28.1398 O   0  0  0  0  0  0  0  0  0  0  0  0
  -22.2810   10.4962   26.6404 N   0  0  0  0  0  0  0  0  0  0  0  0
  -21.3452    9.8997   25.7127 C   0  0  0  0  0  0  0  0  0  0  0  0
  -19.9627   10.5524   25.8715 C   0  0  0  0  0  0  0  0  0  0  0  0
  -20.1097   11.9625   25.5629 N   0  0  0  0  0  0  0  0  0  0  0  0
  -21.4516   12.5066   25.6251 C   0  0  0  0  0  0  0  0  0  0  0  0
  -22.0673   11.9412   26.8864 C   0  0  0  0  0  0  0  0  0  0  0  0
  -18.9591   12.7190   25.2283 C   0  0  0  0  0  0  0  0  0  0  0  0
  -19.1303   13.8030   24.3865 C   0  0  0  0  0  0  0  0  0  0  0  0
  -18.0345   14.5948   24.0159 C   0  0  0  0  0  0  0  0  0  0  0  0
  -16.7651   14.3080   24.4832 C   0  0  0  0  0  0  0  0  0  0  0  0
  -16.5975   13.2252   25.3232 C   0  0  0  0  0  0  0  0  0  0  0  0
  -17.6929   12.4376   25.6911 C   0  0  0  0  0  0  0  0  0  0  0  0
  -15.6296   15.1310   24.0967 C   0  0  0  0  0  0  0  0  0  0  0  0
  -14.7255   15.7974   23.7981 N   0  0  0  0  0  0  0  0  0  0  0  0
 13 14  1  0
 14 12  1  0
 12  2  1  0
  2  3  2  0
  3  4  1  0
  4  5  1  0
  5  6  2  0
  6  7  1  0
  7  8  2  0
  8  1  1  0
  1 18  1  0
 18 19  1  0
 19 20  2  0
 19 21  1  0
 21 22  1  0
 22 23  1  0
 23 24  1  0
 24 25  1  0
 25 26  1  0
 24 27  1  0
 27 28  2  0
 28 29  1  0
 29 30  2  0
 30 31  1  0
 31 32  2  0
 30 33  1  0
 33 34  3  0
  8  9  1  0
  9 10  2  0
 10  2  1  0
 10  5  1  0
 26 21  1  0
 32 27  1  0
 13 15  1  0
 13 16  1  0
 13 17  1  0
  4 11  1  0
M  CHG 1  13   1
M  END
> <minimizedAffinity>
-10.06696

> <CNNscore>
0.8241263628

> <CNNaffinity>
7.0432343483

> <CNN_VS>
5.8045148849

> <CNNaffinity_variance>
0.2531929612

$$$$



 34 37  0  0  0  0  0  0  0  0999 V2000
  -18.1546   13.3936   26.0609 O   0  0  0  0  0  0  0  0  0  0  0  0
  -17.8099   16.0476   21.8601 C   0  0  0  0  0  0  0  0  0  0  0  0
  -17.7815   17.4411   21.7474 C   0  0  0  0  0  0  0  0  0  0  0  0
  -17.8661   17.9582   23.0019 N   0  0  0  0  0  0  0  0  0  0  0  0
  -17.9444   16.9378   23.8665 C   0  0  0  0  0  0  0  0  0  0  0  0
  -18.0457   16.9642   25.2581 C   0  0  0  0  0  0  0  0  0  0  0  0
  -18.1122   15.7684   25.9368 C   0  0  0  0  0  0  0  0  0  0  0  0
  -18.0818   14.5573   25.2856 C   0  0  0  0  0  0  0  0  0  0  0  0
  -17.9819   14.5277   23.9107 C   0  0  0  0  0  0  0  0  0  0  0  0
  -17.9139   15.7311   23.2125 C   0  0  0  0  0  0  0  0  0  0  0  0
  -17.8639   18.9927   23.1817 H   0  0  0  0  0  0  0  0  0  0  0  0
  -17.7433   15.0668   20.7527 C   0  0  0  0  0  0  0  0  0  0  0  0
  -18.7418   14.8165   18.5649 N   0  0  0  0  0  0  0  0  0  0  0  0
  -19.0407   15.0544   19.9582 C   0  0  0  0  0  0  0  0  0  0  0  0
  -18.0134   15.4799   18.2511 H   0  0  0  0  0  0  0  0  0  0  0  0
  -19.6513   14.9147   18.0248 H   0  0  0  0  0  0  0  0  0  0  0  0
  -18.4571   13.8085   18.4719 H   0  0  0  0  0  0  0  0  0  0  0  0
  -17.8080   12.1725   25.5121 C   0  0  0  0  0  0  0  0  0  0  0  0
  -18.7811   11.1087   25.7636 C   0  0  0  0  0  0  0  0  0  0  0  0
  -18.2590    9.9146   25.7517 O   0  0  0  0  0  0  0  0  0  0  0  0
  -20.1441   11.1698   26.0120 N   0  0  0  0  0  0  0  0  0  0  0  0
  -20.9771   12.3456   26.1375 C   0  0  0  0  0  0  0  0  0  0  0  0
  -22.0734   12.1009   27.1866 C   0  0  0  0  0  0  0  0  0  0  0  0
  -22.8812   10.9895   26.7201 N   0  0  0  0  0  0  0  0  0  0  0  0
  -22.2852   10.1254   25.7208 C   0  0  0  0  0  0  0  0  0  0  0  0
  -20.8630    9.8855   26.1788 C   0  0  0  0  0  0  0  0  0  0  0  0
  -24.1802   10.8080   27.2564 C   0  0  0  0  0  0  0  0  0  0  0  0
  -24.9124    9.7255   26.8034 C   0  0  0  0  0  0  0  0  0  0  0  0
  -26.2040    9.4865   27.2929 C   0  0  0  0  0  0  0  0  0  0  0  0
  -26.7693   10.3259   28.2352 C   0  0  0  0  0  0  0  0  0  0  0  0
  -26.0359   11.4056   28.6853 C   0  0  0  0  0  0  0  0  0  0  0  0
  -24.7476   11.6409   28.1949 C   0  0  0  0  0  0  0  0  0  0  0  0
  -28.1100   10.0759   28.7412 C   0  0  0  0  0  0  0  0  0  0  0  0
  -29.1757    9.8723   29.1576 N   0  0  0  0  0  0  0  0  0  0  0  0
 13 14  1  0
 14 12  1  0
 12  2  1  0
  2  3  2  0
  3  4  1  0
  4  5  1  0
  5  6  2  0
  6  7  1  0
  7  8  2  0
  8  1  1  0
  1 18  1  0
 18 19  1  0
 19 20  2  0
 19 21  1  0
 21 22  1  0
 22 23  1  0
 23 24  1  0
 24 25  1  0
 25 26  1  0
 24 27  1  0
 27 28  2  0
 28 29  1  0
 29 30  2  0
 30 31  1  0
 31 32  2  0
 30 33  1  0
 33 34  3  0
  8  9  1  0
  9 10  2  0
 10  2  1  0
 10  5  1  0
 26 21  1  0
 32 27  1  0
 13 15  1  0
 13 16  1  0
 13 17  1  0
  4 11  1  0
M  CHG 1  13   1
M  END
> <minimizedAffinity>
-8.37606

> <CNNscore>
0.1217675433

> <CNNaffinity>
4.9420561790

> <CNN_VS>
0.6017820239

> <CNNaffinity_variance>
0.2838586271

$$$$



 34 37  0  0  0  0  0  0  0  0999 V2000
  -19.7398   13.6047   26.5301 O   0  0  0  0  0  0  0  0  0  0  0  0
  -17.5637   18.0640   26.0964 C   0  0  0  0  0  0  0  0  0  0  0  0
  -17.9723   19.1215   25.2778 C   0  0  0  0  0  0  0  0  0  0  0  0
  -19.0844   18.7185   24.6077 N   0  0  0  0  0  0  0  0  0  0  0  0
  -19.3646   17.4641   24.9860 C   0  0  0  0  0  0  0  0  0  0  0  0
  -20.4052   16.6292   24.5768 C   0  0  0  0  0  0  0  0  0  0  0  0
  -20.4861   15.3648   25.1152 C   0  0  0  0  0  0  0  0  0  0  0  0
  -19.5759   14.9054   26.0385 C   0  0  0  0  0  0  0  0  0  0  0  0
  -18.5465   15.7279   26.4447 C   0  0  0  0  0  0  0  0  0  0  0  0
  -18.4538   17.0095   25.9072 C   0  0  0  0  0  0  0  0  0  0  0  0
  -19.5832   19.3420   23.9259 H   0  0  0  0  0  0  0  0  0  0  0  0
  -16.3965   18.0476   27.0076 C   0  0  0  0  0  0  0  0  0  0  0  0
  -15.7191   18.2227   29.3220 N   0  0  0  0  0  0  0  0  0  0  0  0
  -16.7832   18.5346   28.3960 C   0  0  0  0  0  0  0  0  0  0  0  0
  -15.4695   17.2231   29.2353 H   0  0  0  0  0  0  0  0  0  0  0  0
  -16.0598   18.4812   30.2945 H   0  0  0  0  0  0  0  0  0  0  0  0
  -14.9195   18.8729   29.1130 H   0  0  0  0  0  0  0  0  0  0  0  0
  -20.3906   13.3952   27.7321 C   0  0  0  0  0  0  0  0  0  0  0  0
  -21.5707   12.5357   27.6288 C   0  0  0  0  0  0  0  0  0  0  0  0
  -22.6801   13.1362   27.9561 O   0  0  0  0  0  0  0  0  0  0  0  0
  -21.6928   11.2099   27.2409 N   0  0  0  0  0  0  0  0  0  0  0  0
  -20.6546   10.3159   26.7771 C   0  0  0  0  0  0  0  0  0  0  0  0
  -21.2194    9.3689   25.7062 C   0  0  0  0  0  0  0  0  0  0  0  0
  -22.2773    8.5932   26.3262 N   0  0  0  0  0  0  0  0  0  0  0  0
  -22.8489    9.1289   27.5455 C   0  0  0  0  0  0  0  0  0  0  0  0
  -23.0452   10.6080   27.2935 C   0  0  0  0  0  0  0  0  0  0  0  0
  -22.6907    7.3814   25.7189 C   0  0  0  0  0  0  0  0  0  0  0  0
  -22.2489    7.1285   24.4329 C   0  0  0  0  0  0  0  0  0  0  0  0
  -22.6195    5.9483   23.7736 C   0  0  0  0  0  0  0  0  0  0  0  0
  -23.4315    5.0170   24.3944 C   0  0  0  0  0  0  0  0  0  0  0  0
  -23.8709    5.2724   25.6781 C   0  0  0  0  0  0  0  0  0  0  0  0
  -23.4992    6.4508   26.3329 C   0  0  0  0  0  0  0  0  0  0  0  0
  -23.8150    3.7932   23.7077 C   0  0  0  0  0  0  0  0  0  0  0  0
  -24.1078    2.8119   23.1584 N   0  0  0  0  0  0  0  0  0  0  0  0
 13 14  1  0
 14 12  1  0
 12  2  1  0
  2  3  2  0
  3  4  1  0
  4  5  1  0
  5  6  2  0
  6  7  1  0
  7  8  2  0
  8  1  1  0
  1 18  1  0
 18 19  1  0
 19 20  2  0
 19 21  1  0
 21 22  1  0
 22 23  1  0
 23 24  1  0
 24 25  1  0
 25 26  1  0
 24 27  1  0
 27 28  2  0
 28 29  1  0
 29 30  2  0
 30 31  1  0
 31 32  2  0
 30 33  1  0
 33 34  3  0
  8  9  1  0
  9 10  2  0
 10  2  1  0
 10  5  1  0
 26 21  1  0
 32 27  1  0
 13 15  1  0
 13 16  1  0
 13 17  1  0
  4 11  1  0
M  CHG 1  13   1
M  END
> <minimizedAffinity>
-6.95480

> <CNNscore>
0.1114437804

> <CNNaffinity>
4.8861246109

> <CNN_VS>
0.5445281863

> <CNNaffinity_variance>
0.7557485700

$$$$



 34 37  0  0  0  0  0  0  0  0999 V2000
  -18.3421   13.4624   25.7974 O   0  0  0  0  0  0  0  0  0  0  0  0
  -15.4720   16.7421   23.3860 C   0  0  0  0  0  0  0  0  0  0  0  0
  -15.8989   17.8682   22.6755 C   0  0  0  0  0  0  0  0  0  0  0  0
  -17.2551   17.9168   22.7555 N   0  0  0  0  0  0  0  0  0  0  0  0
  -17.6653   16.8692   23.4831 C   0  0  0  0  0  0  0  0  0  0  0  0
  -18.9612   16.4937   23.8394 C   0  0  0  0  0  0  0  0  0  0  0  0
  -19.1327   15.3617   24.6038 C   0  0  0  0  0  0  0  0  0  0  0  0
  -18.0693   14.5964   25.0228 C   0  0  0  0  0  0  0  0  0  0  0  0
  -16.7876   14.9647   24.6723 C   0  0  0  0  0  0  0  0  0  0  0  0
  -16.6011   16.1081   23.8989 C   0  0  0  0  0  0  0  0  0  0  0  0
  -17.8155   18.6780   22.2983 H   0  0  0  0  0  0  0  0  0  0  0  0
  -14.0749   16.2872   23.5710 C   0  0  0  0  0  0  0  0  0  0  0  0
  -12.4752   14.6481   22.7963 N   0  0  0  0  0  0  0  0  0  0  0  0
  -13.8830   14.8817   23.0212 C   0  0  0  0  0  0  0  0  0  0  0  0
  -12.0834   15.4223   22.2340 H   0  0  0  0  0  0  0  0  0  0  0  0
  -12.3833   13.7031   22.3199 H   0  0  0  0  0  0  0  0  0  0  0  0
  -12.0193   14.5432   23.7381 H   0  0  0  0  0  0  0  0  0  0  0  0
  -17.8836   12.2215   25.3947 C   0  0  0  0  0  0  0  0  0  0  0  0
  -18.8010   11.1213   25.6945 C   0  0  0  0  0  0  0  0  0  0  0  0
  -18.2140    9.9596   25.7603 O   0  0  0  0  0  0  0  0  0  0  0  0
  -20.1694   11.1206   25.9194 N   0  0  0  0  0  0  0  0  0  0  0  0
  -21.0678   12.2533   25.9635 C   0  0  0  0  0  0  0  0  0  0  0  0
  -22.1672   12.0090   27.0095 C   0  0  0  0  0  0  0  0  0  0  0  0
  -22.9045   10.8291   26.5977 N   0  0  0  0  0  0  0  0  0  0  0  0
  -22.2446    9.9431   25.6596 C   0  0  0  0  0  0  0  0  0  0  0  0
  -20.8196    9.8100   26.1512 C   0  0  0  0  0  0  0  0  0  0  0  0
  -24.2007   10.6067   27.1252 C   0  0  0  0  0  0  0  0  0  0  0  0
  -24.9544    9.5934   26.5610 C   0  0  0  0  0  0  0  0  0  0  0  0
  -26.2447    9.3192   27.0354 C   0  0  0  0  0  0  0  0  0  0  0  0
  -26.7871   10.0543   28.0734 C   0  0  0  0  0  0  0  0  0  0  0  0
  -26.0323   11.0651   28.6344 C   0  0  0  0  0  0  0  0  0  0  0  0
  -24.7455   11.3358   28.1588 C   0  0  0  0  0  0  0  0  0  0  0  0
  -28.1266    9.7679   28.5635 C   0  0  0  0  0  0  0  0  0  0  0  0
  -29.2007    9.5516   28.9506 N   0  0  0  0  0  0  0  0  0  0  0  0
 13 14  1  0
 14 12  1  0
 12  2  1  0
  2  3  2  0
  3  4  1  0
  4  5  1  0
  5  6  2  0
  6  7  1  0
  7  8  2  0
  8  1  1  0
  1 18  1  0
 18 19  1  0
 19 20  2  0
 19 21  1  0
 21 22  1  0
 22 23  1  0
 23 24  1  0
 24 25  1  0
 25 26  1  0
 24 27  1  0
 27 28  2  0
 28 29  1  0
 29 30  2  0
 30 31  1  0
 31 32  2  0
 30 33  1  0
 33 34  3  0
  8  9  1  0
  9 10  2  0
 10  2  1  0
 10  5  1  0
 26 21  1  0
 32 27  1  0
 13 15  1  0
 13 16  1  0
 13 17  1  0
  4 11  1  0
M  CHG 1  13   1
M  END
> <minimizedAffinity>
-7.11650

> <CNNscore>
0.1007336006

> <CNNaffinity>
4.9750237465

> <CNN_VS>
0.5011520386

> <CNNaffinity_variance>
0.1541886926

$$$$



 34 37  0  0  0  0  0  0  0  0999 V2000
  -19.3508   13.1877   26.3093 O   0  0  0  0  0  0  0  0  0  0  0  0
  -18.5828   17.8467   24.7242 C   0  0  0  0  0  0  0  0  0  0  0  0
  -17.5082   18.3057   23.9561 C   0  0  0  0  0  0  0  0  0  0  0  0
  -16.6934   17.2454   23.7113 N   0  0  0  0  0  0  0  0  0  0  0  0
  -17.2292   16.1667   24.2982 C   0  0  0  0  0  0  0  0  0  0  0  0
  -16.7616   14.8521   24.3265 C   0  0  0  0  0  0  0  0  0  0  0  0
  -17.4972   13.9055   25.0033 C   0  0  0  0  0  0  0  0  0  0  0  0
  -18.6717   14.2178   25.6475 C   0  0  0  0  0  0  0  0  0  0  0  0
  -19.1362   15.5158   25.6215 C   0  0  0  0  0  0  0  0  0  0  0  0
  -18.4009   16.4827   24.9401 C   0  0  0  0  0  0  0  0  0  0  0  0
  -15.8114   17.3359   23.1490 H   0  0  0  0  0  0  0  0  0  0  0  0
  -19.7198   18.6503   25.2284 C   0  0  0  0  0  0  0  0  0  0  0  0
  -22.1348   18.5939   25.3299 N   0  0  0  0  0  0  0  0  0  0  0  0
  -20.9476   17.7790   25.4464 C   0  0  0  0  0  0  0  0  0  0  0  0
  -22.0431   19.4246   25.9386 H   0  0  0  0  0  0  0  0  0  0  0  0
  -22.9649   17.9826   25.5865 H   0  0  0  0  0  0  0  0  0  0  0  0
  -22.2542   18.8322   24.3127 H   0  0  0  0  0  0  0  0  0  0  0  0
  -20.2733   13.4872   27.2950 C   0  0  0  0  0  0  0  0  0  0  0  0
  -21.4231   12.5822   27.3297 C   0  0  0  0  0  0  0  0  0  0  0  0
  -22.5065   13.1376   27.7948 O   0  0  0  0  0  0  0  0  0  0  0  0
  -21.5403   11.2539   26.9490 N   0  0  0  0  0  0  0  0  0  0  0  0
  -20.5329   10.4030   26.3547 C   0  0  0  0  0  0  0  0  0  0  0  0
  -21.1874    9.4379   25.3533 C   0  0  0  0  0  0  0  0  0  0  0  0
  -22.1307    8.6192   26.0916 N   0  0  0  0  0  0  0  0  0  0  0  0
  -22.5691    9.1280   27.3759 C   0  0  0  0  0  0  0  0  0  0  0  0
  -22.8519   10.5991   27.1616 C   0  0  0  0  0  0  0  0  0  0  0  0
  -22.5681    7.3940   25.5298 C   0  0  0  0  0  0  0  0  0  0  0  0
  -22.2435    7.1456   24.2085 C   0  0  0  0  0  0  0  0  0  0  0  0
  -22.6440    5.9528   23.5906 C   0  0  0  0  0  0  0  0  0  0  0  0
  -23.3692    5.0044   24.2882 C   0  0  0  0  0  0  0  0  0  0  0  0
  -23.6918    5.2553   25.6070 C   0  0  0  0  0  0  0  0  0  0  0  0
  -23.2905    6.4463   26.2202 C   0  0  0  0  0  0  0  0  0  0  0  0
  -23.7840    3.7675   23.6445 C   0  0  0  0  0  0  0  0  0  0  0  0
  -24.1273    2.7798   23.1375 N   0  0  0  0  0  0  0  0  0  0  0  0
 13 14  1  0
 14 12  1  0
 12  2  1  0
  2  3  2  0
  3  4  1  0
  4  5  1  0
  5  6  2  0
  6  7  1  0
  7  8  2  0
  8  1  1  0
  1 18  1  0
 18 19  1  0
 19 20  2  0
 19 21  1  0
 21 22  1  0
 22 23  1  0
 23 24  1  0
 24 25  1  0
 25 26  1  0
 24 27  1  0
 27 28  2  0
 28 29  1  0
 29 30  2  0
 30 31  1  0
 31 32  2  0
 30 33  1  0
 33 34  3  0
  8  9  1  0
  9 10  2  0
 10  2  1  0
 10  5  1  0
 26 21  1  0
 32 27  1  0
 13 15  1  0
 13 16  1  0
 13 17  1  0
  4 11  1  0
M  CHG 1  13   1
M  END
> <minimizedAffinity>
-7.69438

> <CNNscore>
0.0900298283

> <CNNaffinity>
5.1364336014

> <CNN_VS>
0.4624322355

> <CNNaffinity_variance>
0.3866483867

$$$$



 34 37  0  0  0  0  0  0  0  0999 V2000
  -19.5914   13.1007   26.8189 O   0  0  0  0  0  0  0  0  0  0  0  0
  -16.5483   15.0983   23.4192 C   0  0  0  0  0  0  0  0  0  0  0  0
  -16.8529   15.3847   22.0849 C   0  0  0  0  0  0  0  0  0  0  0  0
  -18.1441   15.0182   21.8687 N   0  0  0  0  0  0  0  0  0  0  0  0
  -18.6319   14.5231   23.0142 C   0  0  0  0  0  0  0  0  0  0  0  0
  -19.9045   14.0207   23.2889 C   0  0  0  0  0  0  0  0  0  0  0  0
  -20.1722   13.5631   24.5593 C   0  0  0  0  0  0  0  0  0  0  0  0
  -19.2264   13.5875   25.5579 C   0  0  0  0  0  0  0  0  0  0  0  0
  -17.9681   14.0832   25.2896 C   0  0  0  0  0  0  0  0  0  0  0  0
  -17.6849   14.5491   24.0078 C   0  0  0  0  0  0  0  0  0  0  0  0
  -18.6099   15.1352   20.9350 H   0  0  0  0  0  0  0  0  0  0  0  0
  -15.2551   15.3289   24.1028 C   0  0  0  0  0  0  0  0  0  0  0  0
  -13.3203   16.5468   23.3160 N   0  0  0  0  0  0  0  0  0  0  0  0
  -14.6898   16.6967   23.7507 C   0  0  0  0  0  0  0  0  0  0  0  0
  -12.7955   15.9956   24.0159 H   0  0  0  0  0  0  0  0  0  0  0  0
  -12.9240   17.5224   23.1760 H   0  0  0  0  0  0  0  0  0  0  0  0
  -13.3395   16.1026   22.3631 H   0  0  0  0  0  0  0  0  0  0  0  0
  -20.7312   13.5753   27.4417 C   0  0  0  0  0  0  0  0  0  0  0  0
  -21.8258   12.6055   27.5002 C   0  0  0  0  0  0  0  0  0  0  0  0
  -22.9178   13.0867   28.0241 O   0  0  0  0  0  0  0  0  0  0  0  0
  -21.8844   11.2820   27.0901 N   0  0  0  0  0  0  0  0  0  0  0  0
  -20.8572   10.5045   26.4327 C   0  0  0  0  0  0  0  0  0  0  0  0
  -21.4986    9.5276   25.4343 C   0  0  0  0  0  0  0  0  0  0  0  0
  -22.3620    8.6389   26.1893 N   0  0  0  0  0  0  0  0  0  0  0  0
  -22.7730    9.0912   27.5035 C   0  0  0  0  0  0  0  0  0  0  0  0
  -23.1468   10.5483   27.3395 C   0  0  0  0  0  0  0  0  0  0  0  0
  -22.7535    7.4044   25.6142 C   0  0  0  0  0  0  0  0  0  0  0  0
  -22.2520    7.0954   24.3628 C   0  0  0  0  0  0  0  0  0  0  0  0
  -22.5980    5.8901   23.7365 C   0  0  0  0  0  0  0  0  0  0  0  0
  -23.4450    4.9895   24.3558 C   0  0  0  0  0  0  0  0  0  0  0  0
  -23.9441    5.3008   25.6048 C   0  0  0  0  0  0  0  0  0  0  0  0
  -23.5967    6.5041   26.2268 C   0  0  0  0  0  0  0  0  0  0  0  0
  -23.8028    3.7395   23.7034 C   0  0  0  0  0  0  0  0  0  0  0  0
  -24.0794    2.7342   23.1901 N   0  0  0  0  0  0  0  0  0  0  0  0
 13 14  1  0
 14 12  1  0
 12  2  1  0
  2  3  2  0
  3  4  1  0
  4  5  1  0
  5  6  2  0
  6  7  1  0
  7  8  2  0
  8  1  1  0
  1 18  1  0
 18 19  1  0
 19 20  2  0
 19 21  1  0
 21 22  1  0
 22 23  1  0
 23 24  1  0
 24 25  1  0
 25 26  1  0
 24 27  1  0
 27 28  2  0
 28 29  1  0
 29 30  2  0
 30 31  1  0
 31 32  2  0
 30 33  1  0
 33 34  3  0
  8  9  1  0
  9 10  2  0
 10  2  1  0
 10  5  1  0
 26 21  1  0
 32 27  1  0
 13 15  1  0
 13 16  1  0
 13 17  1  0
  4 11  1  0
M  CHG 1  13   1
M  END
> <minimizedAffinity>
-8.91308

> <CNNscore>
0.0850715786

> <CNNaffinity>
5.3297719955

> <CNN_VS>
0.4534121156

> <CNNaffinity_variance>
0.3760685325

$$$$



 34 37  0  0  0  0  0  0  0  0999 V2000
  -18.7503   11.6081   26.4511 O   0  0  0  0  0  0  0  0  0  0  0  0
  -19.3269   16.3015   24.8862 C   0  0  0  0  0  0  0  0  0  0  0  0
  -18.3621   17.1062   24.2723 C   0  0  0  0  0  0  0  0  0  0  0  0
  -17.2189   16.3772   24.1735 N   0  0  0  0  0  0  0  0  0  0  0  0
  -17.4516   15.1678   24.7012 C   0  0  0  0  0  0  0  0  0  0  0  0
  -16.5891   14.0780   24.8280 C   0  0  0  0  0  0  0  0  0  0  0  0
  -17.0646   12.9259   25.4124 C   0  0  0  0  0  0  0  0  0  0  0  0
  -18.3570   12.8204   25.8713 C   0  0  0  0  0  0  0  0  0  0  0  0
  -19.2115   13.8954   25.7476 C   0  0  0  0  0  0  0  0  0  0  0  0
  -18.7422   15.0668   25.1581 C   0  0  0  0  0  0  0  0  0  0  0  0
  -16.3433   16.7655   23.7436 H   0  0  0  0  0  0  0  0  0  0  0  0
  -20.7246   16.6760   25.2007 C   0  0  0  0  0  0  0  0  0  0  0  0
  -22.2189   18.4990   25.7388 N   0  0  0  0  0  0  0  0  0  0  0  0
  -20.8624   18.1832   25.3552 C   0  0  0  0  0  0  0  0  0  0  0  0
  -22.8768   18.0387   25.0874 H   0  0  0  0  0  0  0  0  0  0  0  0
  -22.3096   19.5575   25.7391 H   0  0  0  0  0  0  0  0  0  0  0  0
  -22.3413   18.1977   26.7388 H   0  0  0  0  0  0  0  0  0  0  0  0
  -19.1046   10.5390   25.6487 C   0  0  0  0  0  0  0  0  0  0  0  0
  -20.3030    9.8287   26.0976 C   0  0  0  0  0  0  0  0  0  0  0  0
  -20.1084    8.5549   26.2929 O   0  0  0  0  0  0  0  0  0  0  0  0
  -21.5870   10.2892   26.3470 N   0  0  0  0  0  0  0  0  0  0  0  0
  -22.0794   11.6471   26.2703 C   0  0  0  0  0  0  0  0  0  0  0  0
  -23.1386   11.8821   27.3591 C   0  0  0  0  0  0  0  0  0  0  0  0
  -24.2317   10.9616   27.1080 N   0  0  0  0  0  0  0  0  0  0  0  0
  -23.9384    9.8145   26.2722 C   0  0  0  0  0  0  0  0  0  0  0  0
  -22.6022    9.2882   26.7489 C   0  0  0  0  0  0  0  0  0  0  0  0
  -25.4999   11.2234   27.6834 C   0  0  0  0  0  0  0  0  0  0  0  0
  -26.5331   10.3580   27.3724 C   0  0  0  0  0  0  0  0  0  0  0  0
  -27.8130   10.5581   27.9078 C   0  0  0  0  0  0  0  0  0  0  0  0
  -28.0666   11.6213   28.7547 C   0  0  0  0  0  0  0  0  0  0  0  0
  -27.0333   12.4834   29.0632 C   0  0  0  0  0  0  0  0  0  0  0  0
  -25.7576   12.2807   28.5274 C   0  0  0  0  0  0  0  0  0  0  0  0
  -29.3959   11.8269   29.3087 C   0  0  0  0  0  0  0  0  0  0  0  0
  -30.4526   12.0003   29.7602 N   0  0  0  0  0  0  0  0  0  0  0  0
 13 14  1  0
 14 12  1  0
 12  2  1  0
  2  3  2  0
  3  4  1  0
  4  5  1  0
  5  6  2  0
  6  7  1  0
  7  8  2  0
  8  1  1  0
  1 18  1  0
 18 19  1  0
 19 20  2  0
 19 21  1  0
 21 22  1  0
 22 23  1  0
 23 24  1  0
 24 25  1  0
 25 26  1  0
 24 27  1  0
 27 28  2  0
 28 29  1  0
 29 30  2  0
 30 31  1  0
 31 32  2  0
 30 33  1  0
 33 34  3  0
  8  9  1  0
  9 10  2  0
 10  2  1  0
 10  5  1  0
 26 21  1  0
 32 27  1  0
 13 15  1  0
 13 16  1  0
 13 17  1  0
  4 11  1  0
M  CHG 1  13   1
M  END
> <minimizedAffinity>
-7.96048

> <CNNscore>
0.0733760446

> <CNNaffinity>
5.0659117699

> <CNN_VS>
0.3717165589

> <CNNaffinity_variance>
0.3798488379

$$$$



 34 37  0  0  0  0  0  0  0  0999 V2000
  -17.9146   13.4478   26.0070 O   0  0  0  0  0  0  0  0  0  0  0  0
  -18.7315   17.9690   24.0834 C   0  0  0  0  0  0  0  0  0  0  0  0
  -18.0811   18.5452   22.9878 C   0  0  0  0  0  0  0  0  0  0  0  0
  -17.1710   17.6458   22.5286 N   0  0  0  0  0  0  0  0  0  0  0  0
  -17.2435   16.5522   23.2992 C   0  0  0  0  0  0  0  0  0  0  0  0
  -16.5123   15.3662   23.2215 C   0  0  0  0  0  0  0  0  0  0  0  0
  -16.7705   14.3717   24.1377 C   0  0  0  0  0  0  0  0  0  0  0  0
  -17.7224   14.5142   25.1203 C   0  0  0  0  0  0  0  0  0  0  0  0
  -18.4464   15.6849   25.1998 C   0  0  0  0  0  0  0  0  0  0  0  0
  -18.1944   16.6987   24.2785 C   0  0  0  0  0  0  0  0  0  0  0  0
  -16.5525   17.8472   21.7043 H   0  0  0  0  0  0  0  0  0  0  0  0
  -19.8012   18.5827   24.9031 C   0  0  0  0  0  0  0  0  0  0  0  0
  -22.0597   18.2632   25.7048 N   0  0  0  0  0  0  0  0  0  0  0  0
  -20.8857   17.5674   25.2309 C   0  0  0  0  0  0  0  0  0  0  0  0
  -21.7917   18.9144   26.4618 H   0  0  0  0  0  0  0  0  0  0  0  0
  -22.7582   17.5273   26.0200 H   0  0  0  0  0  0  0  0  0  0  0  0
  -22.4973   18.7419   24.8771 H   0  0  0  0  0  0  0  0  0  0  0  0
  -17.4470   12.1867   25.6858 C   0  0  0  0  0  0  0  0  0  0  0  0
  -18.4596   11.1341   25.7792 C   0  0  0  0  0  0  0  0  0  0  0  0
  -17.9770    9.9342   25.6188 O   0  0  0  0  0  0  0  0  0  0  0  0
  -19.8247   11.2105   26.0112 N   0  0  0  0  0  0  0  0  0  0  0  0
  -20.6209   12.3885   26.2766 C   0  0  0  0  0  0  0  0  0  0  0  0
  -21.7463   12.0474   27.2664 C   0  0  0  0  0  0  0  0  0  0  0  0
  -22.5804   11.0360   26.6446 N   0  0  0  0  0  0  0  0  0  0  0  0
  -21.9925   10.2895   25.5502 C   0  0  0  0  0  0  0  0  0  0  0  0
  -20.5889    9.9416   25.9958 C   0  0  0  0  0  0  0  0  0  0  0  0
  -23.8955   10.8319   27.1312 C   0  0  0  0  0  0  0  0  0  0  0  0
  -24.4124   11.7827   27.9925 C   0  0  0  0  0  0  0  0  0  0  0  0
  -25.7075   11.6430   28.5104 C   0  0  0  0  0  0  0  0  0  0  0  0
  -26.4908   10.5553   28.1711 C   0  0  0  0  0  0  0  0  0  0  0  0
  -25.9721    9.6079   27.3112 C   0  0  0  0  0  0  0  0  0  0  0  0
  -24.6797    9.7504   26.7963 C   0  0  0  0  0  0  0  0  0  0  0  0
  -27.8344   10.4125   28.7104 C   0  0  0  0  0  0  0  0  0  0  0  0
  -28.9094   10.3123   29.1402 N   0  0  0  0  0  0  0  0  0  0  0  0
 13 14  1  0
 14 12  1  0
 12  2  1  0
  2  3  2  0
  3  4  1  0
  4  5  1  0
  5  6  2  0
  6  7  1  0
  7  8  2  0
  8  1  1  0
  1 18  1  0
 18 19  1  0
 19 20  2  0
 19 21  1  0
 21 22  1  0
 22 23  1  0
 23 24  1  0
 24 25  1  0
 25 26  1  0
 24 27  1  0
 27 28  2  0
 28 29  1  0
 29 30  2  0
 30 31  1  0
 31 32  2  0
 30 33  1  0
 33 34  3  0
  8  9  1  0
  9 10  2  0
 10  2  1  0
 10  5  1  0
 26 21  1  0
 32 27  1  0
 13 15  1  0
 13 16  1  0
 13 17  1  0
  4 11  1  0
M  CHG 1  13   1
M  END
> <minimizedAffinity>
-7.78917

> <CNNscore>
0.0664941743

> <CNNaffinity>
4.8821511269

> <CNN_VS>
0.3246346116

> <CNNaffinity_variance>
0.3551016748

$$$$



 34 37  0  0  0  0  0  0  0  0999 V2000
  -20.0289   15.3317   26.7968 O   0  0  0  0  0  0  0  0  0  0  0  0
  -16.7541   18.6793   28.4933 C   0  0  0  0  0  0  0  0  0  0  0  0
  -15.6385   19.1806   27.8155 C   0  0  0  0  0  0  0  0  0  0  0  0
  -15.5983   18.5881   26.5926 N   0  0  0  0  0  0  0  0  0  0  0  0
  -16.6406   17.7511   26.5029 C   0  0  0  0  0  0  0  0  0  0  0  0
  -17.0215   16.9239   25.4455 C   0  0  0  0  0  0  0  0  0  0  0  0
  -18.1469   16.1445   25.5909 C   0  0  0  0  0  0  0  0  0  0  0  0
  -18.9005   16.1588   26.7415 C   0  0  0  0  0  0  0  0  0  0  0  0
  -18.5268   16.9750   27.7880 C   0  0  0  0  0  0  0  0  0  0  0  0
  -17.3899   17.7683   27.6531 C   0  0  0  0  0  0  0  0  0  0  0  0
  -14.8463   18.8023   25.8918 H   0  0  0  0  0  0  0  0  0  0  0  0
  -17.1969   19.0388   29.8599 C   0  0  0  0  0  0  0  0  0  0  0  0
  -16.7070   18.5848   32.1836 N   0  0  0  0  0  0  0  0  0  0  0  0
  -16.1065   18.7465   30.8797 C   0  0  0  0  0  0  0  0  0  0  0  0
  -17.3216   19.3922   32.3821 H   0  0  0  0  0  0  0  0  0  0  0  0
  -15.9164   18.4842   32.8860 H   0  0  0  0  0  0  0  0  0  0  0  0
  -17.2139   17.6635   32.1844 H   0  0  0  0  0  0  0  0  0  0  0  0
  -20.1683   14.2888   25.8994 C   0  0  0  0  0  0  0  0  0  0  0  0
  -20.7790   13.0882   26.4716 C   0  0  0  0  0  0  0  0  0  0  0  0
  -21.2436   13.2661   27.6762 O   0  0  0  0  0  0  0  0  0  0  0  0
  -20.9419   11.8166   25.9428 N   0  0  0  0  0  0  0  0  0  0  0  0
  -20.5794   11.3444   24.6246 C   0  0  0  0  0  0  0  0  0  0  0  0
  -21.6071   10.3102   24.1381 C   0  0  0  0  0  0  0  0  0  0  0  0
  -21.5788    9.1980   25.0694 N   0  0  0  0  0  0  0  0  0  0  0  0
  -21.0079    9.4569   26.3762 C   0  0  0  0  0  0  0  0  0  0  0  0
  -21.5672   10.7936   26.8126 C   0  0  0  0  0  0  0  0  0  0  0  0
  -22.1028    7.9453   24.6641 C   0  0  0  0  0  0  0  0  0  0  0  0
  -22.3764    7.0176   25.6528 C   0  0  0  0  0  0  0  0  0  0  0  0
  -22.8971    5.7589   25.3216 C   0  0  0  0  0  0  0  0  0  0  0  0
  -23.1463    5.4216   24.0040 C   0  0  0  0  0  0  0  0  0  0  0  0
  -22.8720    6.3498   23.0194 C   0  0  0  0  0  0  0  0  0  0  0  0
  -22.3528    7.6045   23.3534 C   0  0  0  0  0  0  0  0  0  0  0  0
  -23.6863    4.1146   23.6630 C   0  0  0  0  0  0  0  0  0  0  0  0
  -24.1268    3.0716   23.4011 N   0  0  0  0  0  0  0  0  0  0  0  0
 13 14  1  0
 14 12  1  0
 12  2  1  0
  2  3  2  0
  3  4  1  0
  4  5  1  0
  5  6  2  0
  6  7  1  0
  7  8  2  0
  8  1  1  0
  1 18  1  0
 18 19  1  0
 19 20  2  0
 19 21  1  0
 21 22  1  0
 22 23  1  0
 23 24  1  0
 24 25  1  0
 25 26  1  0
 24 27  1  0
 27 28  2  0
 28 29  1  0
 29 30  2  0
 30 31  1  0
 31 32  2  0
 30 33  1  0
 33 34  3  0
  8  9  1  0
  9 10  2  0
 10  2  1  0
 10  5  1  0
 26 21  1  0
 32 27  1  0
 13 15  1  0
 13 16  1  0
 13 17  1  0
  4 11  1  0
M  CHG 1  13   1
M  END
> <minimizedAffinity>
-7.23847

> <CNNscore>
0.0644539520

> <CNNaffinity>
4.7327756882

> <CNN_VS>
0.3050461113

> <CNNaffinity_variance>
0.8705748320

$$$$
