pdb_files/2GM_extracted.pdb
     RDKit          3D

 82 89  0  0  0  0  0  0  0  0999 V2000
    3.4946   -0.5587    0.5644 C   0  0  2  0  0  0  0  0  0  0  0  0
    3.5492    0.4612    0.9679 H   0  0  0  0  0  0  0  0  0  0  0  0
    3.3104   -1.2383    1.4231 H   0  0  0  0  0  0  0  0  0  0  0  0
    4.8290   -1.0000   -0.0588 C   0  0  2  0  0  0  0  0  0  0  0  0
    4.7056   -2.0975   -0.2142 H   0  0  0  0  0  0  0  0  0  0  0  0
    5.9470   -0.6879    0.8213 C   0  0  0  0  0  0  0  0  0  0  0  0
    6.9393    0.1462    0.4190 C   0  0  0  0  0  0  0  0  0  0  0  0
    6.1024   -1.2324    2.1083 C   0  0  0  0  0  0  0  0  0  0  0  0
    5.3380   -1.9036    2.4784 H   0  0  0  0  0  0  0  0  0  0  0  0
    7.2253   -0.8977    2.8685 C   0  0  0  0  0  0  0  0  0  0  0  0
    7.3335   -1.3274    3.8672 H   0  0  0  0  0  0  0  0  0  0  0  0
    8.2054   -0.0293    2.3778 C   0  0  0  0  0  0  0  0  0  0  0  0
    9.0713    0.2357    2.9497 H   0  0  0  0  0  0  0  0  0  0  0  0
    8.0541    0.5082    1.1100 C   0  0  0  0  0  0  0  0  0  0  0  0
    8.8526    1.3906    0.2875 N   0  0  0  0  0  0  0  0  0  0  0  0
    9.5824    2.0332    0.6475 H   0  0  0  0  0  0  0  0  0  0  0  0
    8.4228    1.1868   -1.1098 C   0  0  1  0  0  0  0  0  0  0  0  0
    8.4928    2.1285   -1.6776 H   0  0  0  0  0  0  0  0  0  0  0  0
    6.9900    0.8594   -0.8834 C   0  0  0  0  0  0  0  0  0  0  0  0
    6.3335   -0.0695   -1.8721 C   0  0  2  0  0  0  0  0  0  0  0  0
    6.8773   -1.0383   -1.8863 H   0  0  0  0  0  0  0  0  0  0  0  0
    6.2605    0.3982   -2.8582 H   0  0  0  0  0  0  0  0  0  0  0  0
    4.9241   -0.2427   -1.3431 C   0  0  1  0  0  0  0  0  0  0  0  0
    4.5879    0.8104   -1.0970 H   0  0  0  0  0  0  0  0  0  0  0  0
    3.9804   -0.7269   -2.2986 N   0  0  0  0  0  0  0  0  0  0  0  0
    4.1240   -2.0984   -2.6691 C   0  0  2  0  0  0  0  0  0  0  0  0
    5.2001   -2.2832   -2.8369 H   0  0  0  0  0  0  0  0  0  0  0  0
    3.6475   -2.2255   -3.6842 H   0  0  0  0  0  0  0  0  0  0  0  0
    3.6537   -2.8135   -1.9600 H   0  0  0  0  0  0  0  0  0  0  0  0
    2.6632   -0.3662   -1.8177 C   0  0  1  0  0  0  0  0  0  0  0  0
    2.5690    0.7395   -1.9332 H   0  0  0  0  0  0  0  0  0  0  0  0
    1.9206   -0.8930   -2.4701 H   0  0  0  0  0  0  0  0  0  0  0  0
    2.3663   -0.7610   -0.4164 C   0  0  2  0  0  0  0  0  0  0  0  0
    2.0200   -1.8283   -0.3320 H   0  0  0  0  0  0  0  0  0  0  0  0
    1.2131    0.0525    0.0506 C   0  0  0  0  0  0  0  0  0  0  0  0
    1.2403    0.7624    1.0881 O   0  0  0  0  0  0  0  0  0  0  0  0
   -0.0137    0.0497   -0.7011 N   0  0  0  0  0  0  0  0  0  0  0  0
   -0.0126   -0.5455   -1.5572 H   0  0  0  0  0  0  0  0  0  0  0  0
   -1.1681    0.8349   -0.2751 C   0  0  2  0  0  0  0  0  0  0  0  0
   -0.7870    2.2767   -0.2353 C   0  0  2  0  0  0  0  0  0  0  0  0
   -1.4056    2.8847   -0.9444 H   0  0  0  0  0  0  0  0  0  0  0  0
    0.2575    2.4203   -0.5902 H   0  0  0  0  0  0  0  0  0  0  0  0
   -0.7996    2.7252    0.7847 H   0  0  0  0  0  0  0  0  0  0  0  0
   -1.6687    0.4211    0.9305 O   0  0  0  0  0  0  0  0  0  0  0  0
   -2.2532    0.5387   -1.2801 C   0  0  0  0  0  0  0  0  0  0  0  0
   -2.1606    0.5097   -2.5175 O   0  0  0  0  0  0  0  0  0  0  0  0
   -3.4047    0.3013   -0.4705 N   0  0  0  0  0  0  0  0  0  0  0  0
   -3.0319    0.4081    0.9248 C   0  0  1  0  0  0  0  0  0  0  0  0
   -3.4613   -0.6861    1.6674 O   0  0  0  0  0  0  0  0  0  0  0  0
   -4.2999   -0.5472    2.1452 H   0  0  0  0  0  0  0  0  0  0  0  0
   -3.6946    1.6647    1.4336 C   0  0  2  0  0  0  0  0  0  0  0  0
   -3.3940    2.5323    0.8349 H   0  0  0  0  0  0  0  0  0  0  0  0
   -3.5636    1.8533    2.9030 C   0  0  2  0  0  0  0  0  0  0  0  0
   -2.6373    2.3763    3.2093 H   0  0  0  0  0  0  0  0  0  0  0  0
   -3.7150    0.9160    3.4337 H   0  0  0  0  0  0  0  0  0  0  0  0
   -4.7824    2.7236    3.2246 C   0  0  1  0  0  0  0  0  0  0  0  0
   -5.0425    2.6731    4.2912 H   0  0  0  0  0  0  0  0  0  0  0  0
   -4.5734    3.7478    2.8603 H   0  0  0  0  0  0  0  0  0  0  0  0
   -5.8553    2.1282    2.3383 C   0  0  2  0  0  0  0  0  0  0  0  0
   -6.5280    2.8775    1.8838 H   0  0  0  0  0  0  0  0  0  0  0  0
   -6.3911    1.3822    2.9456 H   0  0  0  0  0  0  0  0  0  0  0  0
   -5.1225    1.5054    1.2418 N   0  0  0  0  0  0  0  0  0  0  0  0
   -5.6302    0.8203    0.1055 C   0  0  0  0  0  0  0  0  0  0  0  0
   -6.8767    0.9186   -0.1591 O   0  0  0  0  0  0  0  0  0  0  0  0
   -4.7913   -0.0060   -0.7956 C   0  0  2  0  0  0  0  0  0  0  0  0
   -4.9740    0.2945   -1.8699 H   0  0  0  0  0  0  0  0  0  0  0  0
   -5.1117   -1.4677   -0.7308 C   0  0  2  0  0  0  0  0  0  0  0  0
   -4.8571   -1.9209    0.2633 H   0  0  0  0  0  0  0  0  0  0  0  0
   -4.5243   -2.0641   -1.4581 H   0  0  0  0  0  0  0  0  0  0  0  0
   -6.5353   -1.7216   -1.0714 C   0  0  0  0  0  0  0  0  0  0  0  0
   -7.5520   -1.7522   -0.1581 C   0  0  0  0  0  0  0  0  0  0  0  0
   -7.3287   -1.5840    0.8838 H   0  0  0  0  0  0  0  0  0  0  0  0
   -8.8715   -1.9879   -0.4776 C   0  0  0  0  0  0  0  0  0  0  0  0
   -9.6648   -2.0095    0.2502 H   0  0  0  0  0  0  0  0  0  0  0  0
   -9.2224   -2.2129   -1.8082 C   0  0  0  0  0  0  0  0  0  0  0  0
  -10.2573   -2.3974   -2.0537 H   0  0  0  0  0  0  0  0  0  0  0  0
   -8.2040   -2.1835   -2.7330 C   0  0  0  0  0  0  0  0  0  0  0  0
   -8.4404   -2.3557   -3.7881 H   0  0  0  0  0  0  0  0  0  0  0  0
   -6.8858   -1.9464   -2.4021 C   0  0  0  0  0  0  0  0  0  0  0  0
   -6.0900   -1.9245   -3.1336 H   0  0  0  0  0  0  0  0  0  0  0  0
    8.9658    0.3848   -1.6077 H   0  0  0  0  0  0  0  0  0  0  0  0
    6.3339    1.7507   -0.7975 H   0  0  0  0  0  0  0  0  0  0  0  0
  1  2  1  1
  1  3  1  0
  1  4  1  0
  1 33  1  0
  4  5  1  6
  4  6  1  0
  4 23  1  0
  6  7  2  0
  6  8  1  0
  7 14  1  0
  7 19  1  0
  8  9  1  0
  8 10  2  0
 10 11  1  0
 10 12  1  0
 12 13  1  0
 12 14  2  0
 14 15  1  0
 15 16  1  0
 15 17  1  0
 17 18  1  6
 17 19  1  0
 19 20  1  0
 20 21  1  6
 20 22  1  0
 20 23  1  0
 23 24  1  1
 23 25  1  0
 25 26  1  0
 25 30  1  0
 26 27  1  6
 26 28  1  0
 26 29  1  0
 30 31  1  1
 30 32  1  0
 30 33  1  0
 33 34  1  6
 33 35  1  0
 35 36  2  0
 35 37  1  0
 37 38  1  0
 39 37  1  6
 39 40  1  0
 39 44  1  0
 39 45  1  0
 40 41  1  6
 40 42  1  0
 40 43  1  0
 44 48  1  0
 45 46  2  0
 45 47  1  0
 47 48  1  0
 47 65  1  0
 48 49  1  1
 48 51  1  0
 49 50  1  0
 51 52  1  6
 51 53  1  0
 51 62  1  0
 53 54  1  6
 53 55  1  0
 53 56  1  0
 56 57  1  1
 56 58  1  0
 56 59  1  0
 59 60  1  6
 59 61  1  0
 59 62  1  0
 62 63  1  0
 63 64  2  0
 63 65  1  0
 65 66  1  6
 65 67  1  0
 67 68  1  1
 67 69  1  0
 67 70  1  0
 70 71  2  0
 70 79  1  0
 71 72  1  0
 71 73  1  0
 73 74  1  0
 73 75  2  0
 75 76  1  0
 75 77  1  0
 77 78  1  0
 77 79  2  0
 79 80  1  0
 17 81  1  0
 19 82  1  0
M  END
