


46 53  0  0  0  0  0  0  0  0999 V2000
  -20.9151   12.0583   19.3557 C   0  0  0  0  0  0  0  0  0  0  0  0
  -21.2636   12.6656   18.0173 C   0  0  0  0  0  0  0  0  0  0  0  0
  -19.5526   11.8432   19.3590 O   0  0  0  0  0  0  0  0  0  0  0  0
  -18.9233   12.8499   20.0534 C   0  0  0  0  0  0  0  0  0  0  0  0
  -18.1233   12.2473   21.0248 O   0  0  0  0  0  0  0  0  0  0  0  0
  -18.0084   13.5569   19.1068 C   0  0  0  0  0  0  0  0  0  0  0  0
  -16.5429   13.1502   19.2845 C   0  0  0  0  0  0  0  0  0  0  0  0
  -15.8040   14.3144   18.6451 C   0  0  0  0  0  0  0  0  0  0  0  0
  -16.8018   15.4427   18.5006 C   0  0  0  0  0  0  0  0  0  0  0  0
  -17.8967   14.9848   19.3361 N   0  0  0  0  0  0  0  0  0  0  0  0
  -18.7454   15.6985   20.2274 C   0  0  0  0  0  0  0  0  0  0  0  0
  -18.8624   16.9512   20.1706 O   0  0  0  0  0  0  0  0  0  0  0  0
  -19.5095   14.9374   21.2481 C   0  0  0  0  0  0  0  0  0  0  0  0
  -19.9238   13.7130   20.6326 N   0  0  0  0  0  0  0  0  0  0  0  0
  -21.1841   13.0594   20.4212 C   0  0  0  0  0  0  0  0  0  0  0  0
  -22.2537   13.3157   21.0313 O   0  0  0  0  0  0  0  0  0  0  0  0
  -18.5702   11.4459   21.4003 H   0  0  0  0  0  0  0  0  0  0  0  0
  -21.4143   10.0021   20.7182 C   0  0  0  0  0  0  0  0  0  0  0  0
  -20.6450   10.3316   21.6574 O   0  0  0  0  0  0  0  0  0  0  0  0
  -21.5909   10.8002   19.5672 N   0  0  0  0  0  0  0  0  0  0  0  0
  -22.2669   10.4192   18.8395 H   0  0  0  0  0  0  0  0  0  0  0  0
  -20.1102    5.9213   20.4464 C   0  0  0  0  0  0  0  0  0  0  0  0
  -21.4728    6.3694   20.4960 N   0  0  0  0  0  0  0  0  0  0  0  0
  -21.7059    7.6465   19.9279 C   0  0  0  0  0  0  0  0  0  0  0  0
  -22.1508    8.7123   20.8621 C   0  0  0  0  0  0  0  0  0  0  0  0
  -22.2258    8.2867   22.3150 C   0  0  0  0  0  0  0  0  0  0  0  0
  -23.0421    7.0315   22.2932 C   0  0  0  0  0  0  0  0  0  0  0  0
  -22.2005    5.9743   21.6346 C   0  0  0  0  0  0  0  0  0  0  0  0
  -23.0378    4.7129   21.4527 C   0  0  0  0  0  0  0  0  0  0  0  0
  -23.4673    4.2456   22.7938 C   0  0  0  0  0  0  0  0  0  0  0  0
  -23.7593    3.0356   23.3881 C   0  0  0  0  0  0  0  0  0  0  0  0
  -24.1068    3.2679   24.6900 N   0  0  0  0  0  0  0  0  0  0  0  0
  -24.0459    4.5875   24.9463 C   0  0  0  0  0  0  0  0  0  0  0  0
  -24.2718    5.4077   26.0309 C   0  0  0  0  0  0  0  0  0  0  0  0
  -24.0986    6.7901   25.9151 C   0  0  0  0  0  0  0  0  0  0  0  0
  -23.6963    7.3626   24.7072 C   0  0  0  0  0  0  0  0  0  0  0  0
  -23.4677    6.5374   23.6108 C   0  0  0  0  0  0  0  0  0  0  0  0
  -23.6518    5.1881   23.7767 C   0  0  0  0  0  0  0  0  0  0  0  0
  -24.3844    2.5578   25.4118 H   0  0  0  0  0  0  0  0  0  0  0  0
  -18.7018   14.7341   22.5096 C   0  0  0  0  0  0  0  0  0  0  0  0
  -19.6175   14.0297   23.4731 C   0  0  0  0  0  0  0  0  0  0  0  0
  -20.7822   14.7082   23.7994 C   0  0  0  0  0  0  0  0  0  0  0  0
  -21.6931   14.1463   24.6783 C   0  0  0  0  0  0  0  0  0  0  0  0
  -21.4095   12.8972   25.2174 C   0  0  0  0  0  0  0  0  0  0  0  0
  -20.2367   12.2458   24.8706 C   0  0  0  0  0  0  0  0  0  0  0  0
  -19.3163   12.7916   23.9952 C   0  0  0  0  0  0  0  0  0  0  0  0
 22 23  1  0
 23 24  1  0
 24 25  1  0
 25 26  1  0
 26 27  1  0
 27 28  1  0
 28 29  1  0
 29 30  1  0
 30 31  2  0
 31 32  1  0
 32 33  1  0
 33 34  2  0
 34 35  1  0
 35 36  2  0
 36 37  1  0
 37 38  2  0
 25 18  1  0
 18 19  2  0
 18 20  1  0
  1 20  1  0
  1  2  1  0
  1  3  1  0
  3  4  1  0
  4  5  1  0
  4  6  1  0
  6  7  1  0
  7  8  1  0
  8  9  1  0
  9 10  1  0
 10 11  1  0
 11 12  2  0
 11 13  1  0
 13 40  1  0
 40 41  1  0
 41 42  2  0
 42 43  1  0
 43 44  2  0
 44 45  1  0
 45 46  2  0
 13 14  1  0
 14 15  1  0
 15 16  2  0
 28 23  1  0
 37 27  1  0
 38 30  1  0
 38 33  1  0
 15  1  1  0
 14  4  1  0
 10  6  1  0
 46 41  1  0
 32 39  1  0
 20 21  1  0
  5 17  1  0
M  END
> <minimizedAffinity>
-10.78226

> <CNNscore>
0.6894059777

> <CNNaffinity>
7.9377150536

> <CNN_VS>
5.4723081589

> <CNNaffinity_variance>
0.4570270479
$$$$