
     RDKit          3D

 56 59  0  0  0  0  0  0  0  0999 V2000
    5.6970   -0.4152    2.0714 N   0  0  0  0  0  4  0  0  0  0  0  0
    4.6182    0.5266    1.8812 C   0  0  0  0  0  0  0  0  0  0  0  0
    3.2980   -0.1513    2.2158 C   0  0  0  0  0  0  0  0  0  0  0  0
    3.0691   -1.3251    1.3425 C   0  0  0  0  0  0  0  0  0  0  0  0
    3.2109   -2.6710    1.6943 C   0  0  0  0  0  0  0  0  0  0  0  0
    2.9039   -3.4178    0.6006 N   0  0  0  0  0  0  0  0  0  0  0  0
    2.5829   -2.5815   -0.3957 C   0  0  0  0  0  0  0  0  0  0  0  0
    2.1993   -2.8730   -1.7054 C   0  0  0  0  0  0  0  0  0  0  0  0
    1.9166   -1.8291   -2.5571 C   0  0  0  0  0  0  0  0  0  0  0  0
    2.0013   -0.5163   -2.1553 C   0  0  0  0  0  0  0  0  0  0  0  0
    1.6947    0.4776   -3.0926 O   0  0  0  0  0  0  0  0  0  0  0  0
    1.7642    1.8118   -2.7357 C   0  0  0  0  0  0  0  0  0  0  0  0
    0.8112    2.2006   -1.6952 C   0  0  0  0  0  0  0  0  0  0  0  0
    1.0795    3.3539   -1.1507 O   0  0  0  0  0  0  0  0  0  0  0  0
   -0.3130    1.5499   -1.2096 N   0  0  0  0  0  0  0  0  0  0  0  0
   -0.8809    0.2961   -1.6541 C   0  0  0  0  0  0  0  0  0  0  0  0
   -2.4134    0.3489   -1.5483 C   0  0  0  0  0  0  0  0  0  0  0  0
   -2.7458    0.5564   -0.1513 N   0  0  0  0  0  0  0  0  0  0  0  0
   -1.6966    1.0871    0.6961 C   0  0  0  0  0  0  0  0  0  0  0  0
   -1.0476    2.1990   -0.0991 C   0  0  0  0  0  0  0  0  0  0  0  0
   -4.0509    0.2406    0.3015 C   0  0  0  0  0  0  0  0  0  0  0  0
   -4.9652   -0.1959   -0.6401 C   0  0  0  0  0  0  0  0  0  0  0  0
   -6.2735   -0.5261   -0.2603 C   0  0  0  0  0  0  0  0  0  0  0  0
   -6.6740   -0.4220    1.0591 C   0  0  0  0  0  0  0  0  0  0  0  0
   -5.7591    0.0141    1.9966 C   0  0  0  0  0  0  0  0  0  0  0  0
   -4.4547    0.3425    1.6142 C   0  0  0  0  0  0  0  0  0  0  0  0
   -8.0325   -0.7649    1.4505 C   0  0  0  0  0  0  0  0  0  0  0  0
   -9.1225   -1.0325    1.7517 N   0  0  0  0  0  0  0  0  0  0  0  0
    2.3799   -0.2250   -0.8619 C   0  0  0  0  0  0  0  0  0  0  0  0
    2.6685   -1.2726    0.0095 C   0  0  0  0  0  0  0  0  0  0  0  0
    5.6206   -0.8410    3.0105 H   0  0  0  0  0  0  0  0  0  0  0  0
    6.6075    0.1135    1.9297 H   0  0  0  0  0  0  0  0  0  0  0  0
    5.6444   -1.1160    1.2892 H   0  0  0  0  0  0  0  0  0  0  0  0
    4.5611    0.8168    0.8037 H   0  0  0  0  0  0  0  0  0  0  0  0
    4.7812    1.4203    2.5167 H   0  0  0  0  0  0  0  0  0  0  0  0
    3.2653   -0.4338    3.2877 H   0  0  0  0  0  0  0  0  0  0  0  0
    2.5031    0.5912    2.0472 H   0  0  0  0  0  0  0  0  0  0  0  0
    3.5126   -3.0698    2.6660 H   0  0  0  0  0  0  0  0  0  0  0  0
    2.9365   -4.4672    0.6128 H   0  0  0  0  0  0  0  0  0  0  0  0
    2.1227   -3.8940   -2.0525 H   0  0  0  0  0  0  0  0  0  0  0  0
    1.6186   -2.0822   -3.5759 H   0  0  0  0  0  0  0  0  0  0  0  0
    1.6155    2.4211   -3.6808 H   0  0  0  0  0  0  0  0  0  0  0  0
    2.8098    2.0947   -2.4183 H   0  0  0  0  0  0  0  0  0  0  0  0
   -0.5604   -0.5771   -1.0516 H   0  0  0  0  0  0  0  0  0  0  0  0
   -0.6728    0.1481   -2.7218 H   0  0  0  0  0  0  0  0  0  0  0  0
   -2.7532   -0.6580   -1.8234 H   0  0  0  0  0  0  0  0  0  0  0  0
   -2.7919    1.1011   -2.2335 H   0  0  0  0  0  0  0  0  0  0  0  0
   -0.9351    0.2810    0.7948 H   0  0  0  0  0  0  0  0  0  0  0  0
   -2.0256    1.4110    1.6865 H   0  0  0  0  0  0  0  0  0  0  0  0
   -1.8357    2.8223   -0.5877 H   0  0  0  0  0  0  0  0  0  0  0  0
   -0.3634    2.7872    0.5466 H   0  0  0  0  0  0  0  0  0  0  0  0
   -4.7516   -0.3093   -1.6837 H   0  0  0  0  0  0  0  0  0  0  0  0
   -6.9853   -0.8722   -1.0265 H   0  0  0  0  0  0  0  0  0  0  0  0
   -6.0682    0.1009    3.0493 H   0  0  0  0  0  0  0  0  0  0  0  0
   -3.7738    0.6763    2.3716 H   0  0  0  0  0  0  0  0  0  0  0  0
    2.4528    0.7877   -0.5290 H   0  0  0  0  0  0  0  0  0  0  0  0
  1  2  1  0
  2  3  1  0
  3  4  1  0
  4  5  2  0
  5  6  1  0
  6  7  1  0
  7  8  2  0
  8  9  1  0
  9 10  2  0
 10 11  1  0
 11 12  1  0
 12 13  1  0
 13 14  2  0
 13 15  1  0
 15 16  1  0
 16 17  1  0
 17 18  1  0
 18 19  1  0
 19 20  1  0
 18 21  1  0
 21 22  2  0
 22 23  1  0
 23 24  2  0
 24 25  1  0
 25 26  2  0
 24 27  1  0
 27 28  3  0
 10 29  1  0
 29 30  2  0
 30  4  1  0
 30  7  1  0
 20 15  1  0
 26 21  1  0
  1 31  1  0
  1 32  1  0
  1 33  1  0
  2 34  1  0
  2 35  1  0
  3 36  1  0
  3 37  1  0
  5 38  1  0
  6 39  1  0
  8 40  1  0
  9 41  1  0
 12 42  1  0
 12 43  1  0
 16 44  1  0
 16 45  1  0
 17 46  1  0
 17 47  1  0
 19 48  1  0
 19 49  1  0
 20 50  1  0
 20 51  1  0
 22 52  1  0
 23 53  1  0
 25 54  1  0
 26 55  1  0
 29 56  1  0
M  CHG  1   1   1
M  END
$$$$
