


  9  9  0  0  0  0  0  0  0  0999 V2000
  -23.0573   11.0373   28.2488 C   0  0  0  0  0  0  0  0  0  0  0  0
  -24.0945   10.2428   27.7916 C   0  0  0  0  0  0  0  0  0  0  0  0
  -25.3956   10.6605   27.6897 C   0  0  0  0  0  0  0  0  0  0  0  0
  -25.6909   11.9645   28.0700 C   0  0  0  0  0  0  0  0  0  0  0  0
  -24.6791   12.7991   28.5359 C   0  0  0  0  0  0  0  0  0  0  0  0
  -23.3629   12.3319   28.6239 C   0  0  0  0  0  0  0  0  0  0  0  0
  -20.5850   11.4578   28.1422 C   0  0  0  0  0  0  0  0  0  0  0  0
  -21.7178   10.6099   28.3544 N   0  0  0  0  0  0  0  0  0  0  0  0
  -21.5107    9.2068   28.7040 C   0  0  0  0  0  0  0  0  0  0  0  0
  7  8  1  0  0  0
  8  9  1  0  0  0
  8  1  1  0  0  0
  1  2  2  0  0  0
  2  3  1  0  0  0
  3  4  2  0  0  0
  4  5  1  0  0  0
  5  6  2  0  0  0
  6  1  1  0  0  0
M  END
> <minimizedAffinity>
2.70618

> <CNNscore>
0.7779288292

> <CNNaffinity>
3.6684024334

> <CNN_VS>
2.8537559509

> <CNNaffinity_variance>
0.0705373809

$$$$



  9  9  0  0  0  0  0  0  0  0999 V2000
  -23.1855    9.8097   27.9519 C   0  0  0  0  0  0  0  0  0  0  0  0
  -24.4033    9.3740   27.4587 C   0  0  0  0  0  0  0  0  0  0  0  0
  -25.4852   10.1892   27.2521 C   0  0  0  0  0  0  0  0  0  0  0  0
  -25.3496   11.5386   27.5576 C   0  0  0  0  0  0  0  0  0  0  0  0
  -24.1429   12.0210   28.0561 C   0  0  0  0  0  0  0  0  0  0  0  0
  -23.0625   11.1533   28.2520 C   0  0  0  0  0  0  0  0  0  0  0  0
  -21.8154    7.7723   27.4302 C   0  0  0  0  0  0  0  0  0  0  0  0
  -22.0709    8.9730   28.1653 N   0  0  0  0  0  0  0  0  0  0  0  0
  -21.1390    9.3887   29.2105 C   0  0  0  0  0  0  0  0  0  0  0  0
  7  8  1  0  0  0
  8  9  1  0  0  0
  8  1  1  0  0  0
  1  2  2  0  0  0
  2  3  1  0  0  0
  3  4  2  0  0  0
  4  5  1  0  0  0
  5  6  2  0  0  0
  6  1  1  0  0  0
M  END
> <minimizedAffinity>
-1.94821

> <CNNscore>
0.7394396663

> <CNNaffinity>
4.1034193039

> <CNN_VS>
3.0342309475

> <CNNaffinity_variance>
0.0878435150

$$$$



  9  9  0  0  0  0  0  0  0  0999 V2000
  -23.1715    9.8675   27.9457 C   0  0  0  0  0  0  0  0  0  0  0  0
  -23.1973   11.2161   28.2568 C   0  0  0  0  0  0  0  0  0  0  0  0
  -24.2753   12.0342   28.0417 C   0  0  0  0  0  0  0  0  0  0  0  0
  -25.4140   11.4730   27.4753 C   0  0  0  0  0  0  0  0  0  0  0  0
  -25.4329   10.1207   27.1464 C   0  0  0  0  0  0  0  0  0  0  0  0
  -24.3094    9.3206   27.3832 C   0  0  0  0  0  0  0  0  0  0  0  0
  -21.8003    7.8321   27.4189 C   0  0  0  0  0  0  0  0  0  0  0  0
  -22.0637    9.0236   28.1661 N   0  0  0  0  0  0  0  0  0  0  0  0
  -21.1479    9.4213   29.2324 C   0  0  0  0  0  0  0  0  0  0  0  0
  7  8  1  0  0  0
  8  9  1  0  0  0
  8  1  1  0  0  0
  1  2  2  0  0  0
  2  3  1  0  0  0
  3  4  2  0  0  0
  4  5  1  0  0  0
  5  6  2  0  0  0
  6  1  1  0  0  0
M  END
> <minimizedAffinity>
-1.85327

> <CNNscore>
0.7374948263

> <CNNaffinity>
4.0851106644

> <CNN_VS>
3.0127480030

> <CNNaffinity_variance>
0.0912883803

$$$$



  9  9  0  0  0  0  0  0  0  0999 V2000
  -23.8834   10.6150   27.8716 C   0  0  0  0  0  0  0  0  0  0  0  0
  -23.0318   11.6866   28.0782 C   0  0  0  0  0  0  0  0  0  0  0  0
  -21.7055   11.5637   28.3999 C   0  0  0  0  0  0  0  0  0  0  0  0
  -21.1838   10.2814   28.5263 C   0  0  0  0  0  0  0  0  0  0  0  0
  -22.0036    9.1743   28.3274 C   0  0  0  0  0  0  0  0  0  0  0  0
  -23.3535    9.3450   27.9999 C   0  0  0  0  0  0  0  0  0  0  0  0
  -26.0134    9.7185   26.8918 C   0  0  0  0  0  0  0  0  0  0  0  0
  -25.2483   10.7389   27.5405 N   0  0  0  0  0  0  0  0  0  0  0  0
  -25.8898   12.0020   27.8968 C   0  0  0  0  0  0  0  0  0  0  0  0
  7  8  1  0  0  0
  8  9  1  0  0  0
  8  1  1  0  0  0
  1  2  2  0  0  0
  2  3  1  0  0  0
  3  4  2  0  0  0
  4  5  1  0  0  0
  5  6  2  0  0  0
  6  1  1  0  0  0
M  END
> <minimizedAffinity>
0.87798

> <CNNscore>
0.6830393672

> <CNNaffinity>
3.8282020092

> <CNN_VS>
2.6148126125

> <CNNaffinity_variance>
0.0801714808

$$$$



  9  9  0  0  0  0  0  0  0  0999 V2000
  -14.5120   17.0781   24.7730 C   0  0  0  0  0  0  0  0  0  0  0  0
  -13.4348   16.8854   25.6208 C   0  0  0  0  0  0  0  0  0  0  0  0
  -13.4876   17.0487   26.9803 C   0  0  0  0  0  0  0  0  0  0  0  0
  -14.7000   17.4322   27.5420 C   0  0  0  0  0  0  0  0  0  0  0  0
  -15.8099   17.6372   26.7274 C   0  0  0  0  0  0  0  0  0  0  0  0
  -15.7122   17.4591   25.3428 C   0  0  0  0  0  0  0  0  0  0  0  0
  -15.3077   17.6007   22.4505 C   0  0  0  0  0  0  0  0  0  0  0  0
  -14.4603   16.9106   23.3740 N   0  0  0  0  0  0  0  0  0  0  0  0
  -13.4671   15.9651   22.8706 C   0  0  0  0  0  0  0  0  0  0  0  0
  7  8  1  0  0  0
  8  9  1  0  0  0
  8  1  1  0  0  0
  1  2  2  0  0  0
  2  3  1  0  0  0
  3  4  2  0  0  0
  4  5  1  0  0  0
  5  6  2  0  0  0
  6  1  1  0  0  0
M  END
> <minimizedAffinity>
-1.86116

> <CNNscore>
0.6769992709

> <CNNaffinity>
3.1652231216

> <CNN_VS>
2.1428537369

> <CNNaffinity_variance>
0.1027393490

$$$$



  9  9  0  0  0  0  0  0  0  0999 V2000
  -23.5879   10.0124   27.9228 C   0  0  0  0  0  0  0  0  0  0  0  0
  -23.2489    8.6706   27.8961 C   0  0  0  0  0  0  0  0  0  0  0  0
  -21.9931    8.1895   28.1589 C   0  0  0  0  0  0  0  0  0  0  0  0
  -20.9978    9.1082   28.4719 C   0  0  0  0  0  0  0  0  0  0  0  0
  -21.2935   10.4678   28.5104 C   0  0  0  0  0  0  0  0  0  0  0  0
  -22.5902   10.9164   28.2352 C   0  0  0  0  0  0  0  0  0  0  0  0
  -25.8460    9.8365   26.8408 C   0  0  0  0  0  0  0  0  0  0  0  0
  -24.8793   10.5098   27.6529 N   0  0  0  0  0  0  0  0  0  0  0  0
  -25.2177   11.7963   28.2564 C   0  0  0  0  0  0  0  0  0  0  0  0
  7  8  1  0  0  0
  8  9  1  0  0  0
  8  1  1  0  0  0
  1  2  2  0  0  0
  2  3  1  0  0  0
  3  4  2  0  0  0
  4  5  1  0  0  0
  5  6  2  0  0  0
  6  1  1  0  0  0
M  END
> <minimizedAffinity>
-0.88454

> <CNNscore>
0.6758531928

> <CNNaffinity>
3.8786041737

> <CNN_VS>
2.6213669777

> <CNNaffinity_variance>
0.0939889848

$$$$



  9  9  0  0  0  0  0  0  0  0999 V2000
  -22.2772    9.0160   27.7498 C   0  0  0  0  0  0  0  0  0  0  0  0
  -21.3870    8.7958   26.7129 C   0  0  0  0  0  0  0  0  0  0  0  0
  -20.9381    7.5576   26.3350 C   0  0  0  0  0  0  0  0  0  0  0  0
  -21.4070    6.4540   27.0382 C   0  0  0  0  0  0  0  0  0  0  0  0
  -22.3034    6.6282   28.0886 C   0  0  0  0  0  0  0  0  0  0  0  0
  -22.7366    7.9112   28.4417 C   0  0  0  0  0  0  0  0  0  0  0  0
  -24.1229   10.6475   28.2318 C   0  0  0  0  0  0  0  0  0  0  0  0
  -22.7407   10.2890   28.1406 N   0  0  0  0  0  0  0  0  0  0  0  0
  -21.7177   11.2798   28.4654 C   0  0  0  0  0  0  0  0  0  0  0  0
  7  8  1  0  0  0
  8  9  1  0  0  0
  8  1  1  0  0  0
  1  2  2  0  0  0
  2  3  1  0  0  0
  3  4  2  0  0  0
  4  5  1  0  0  0
  5  6  2  0  0  0
  6  1  1  0  0  0
M  END
> <minimizedAffinity>
2.49947

> <CNNscore>
0.6718377471

> <CNNaffinity>
3.7104930878

> <CNN_VS>
2.4928493500

> <CNNaffinity_variance>
0.1453905553

$$$$



  9  9  0  0  0  0  0  0  0  0999 V2000
  -19.0698   11.5943   15.4455 C   0  0  0  0  0  0  0  0  0  0  0  0
  -18.3344   12.0871   14.3813 C   0  0  0  0  0  0  0  0  0  0  0  0
  -17.9756   13.4018   14.2381 C   0  0  0  0  0  0  0  0  0  0  0  0
  -18.3761   14.2957   15.2245 C   0  0  0  0  0  0  0  0  0  0  0  0
  -19.1172   13.8443   16.3128 C   0  0  0  0  0  0  0  0  0  0  0  0
  -19.4622   12.4923   16.4201 C   0  0  0  0  0  0  0  0  0  0  0  0
  -20.4861    9.7866   16.4588 C   0  0  0  0  0  0  0  0  0  0  0  0
  -19.4401   10.2421   15.5952 N   0  0  0  0  0  0  0  0  0  0  0  0
  -18.6872    9.2723   14.8037 C   0  0  0  0  0  0  0  0  0  0  0  0
  7  8  1  0  0  0
  8  9  1  0  0  0
  8  1  1  0  0  0
  1  2  2  0  0  0
  2  3  1  0  0  0
  3  4  2  0  0  0
  4  5  1  0  0  0
  5  6  2  0  0  0
  6  1  1  0  0  0
M  END
> <minimizedAffinity>
2.08896

> <CNNscore>
0.6709960103

> <CNNaffinity>
3.8671956062

> <CNN_VS>
2.5948727131

> <CNNaffinity_variance>
0.0394482538

$$$$



  9  9  0  0  0  0  0  0  0  0999 V2000
  -24.0197   10.8024   27.7304 C   0  0  0  0  0  0  0  0  0  0  0  0
  -25.0292   10.4254   28.5993 C   0  0  0  0  0  0  0  0  0  0  0  0
  -26.1709    9.7727   28.2144 C   0  0  0  0  0  0  0  0  0  0  0  0
  -26.3236    9.4710   26.8660 C   0  0  0  0  0  0  0  0  0  0  0  0
  -25.3336    9.8313   25.9563 C   0  0  0  0  0  0  0  0  0  0  0  0
  -24.1825   10.4971   26.3923 C   0  0  0  0  0  0  0  0  0  0  0  0
  -22.7672   12.8812   28.3713 C   0  0  0  0  0  0  0  0  0  0  0  0
  -22.8441   11.4740   28.1240 N   0  0  0  0  0  0  0  0  0  0  0  0
  -21.6479   10.6500   28.2793 C   0  0  0  0  0  0  0  0  0  0  0  0
  7  8  1  0  0  0
  8  9  1  0  0  0
  8  1  1  0  0  0
  1  2  2  0  0  0
  2  3  1  0  0  0
  3  4  2  0  0  0
  4  5  1  0  0  0
  5  6  2  0  0  0
  6  1  1  0  0  0
M  END
> <minimizedAffinity>
6.77670

> <CNNscore>
0.6689944863

> <CNNaffinity>
3.6066062450

> <CNN_VS>
2.4127995968

> <CNNaffinity_variance>
0.0304037277

$$$$
