


46 53  0  0  0  0  0  0  0  0999 V2000
  -19.3434   12.1920   23.9617 C   0  0  0  0  0  0  0  0  0  0  0  0
  -18.4809   11.8880   25.1639 C   0  0  0  0  0  0  0  0  0  0  0  0
  -20.2003   13.2096   24.3265 O   0  0  0  0  0  0  0  0  0  0  0  0
  -19.7303   14.4096   23.8459 C   0  0  0  0  0  0  0  0  0  0  0  0
  -20.7652   15.0002   23.1200 O   0  0  0  0  0  0  0  0  0  0  0  0
  -19.4535   15.2954   25.0171 C   0  0  0  0  0  0  0  0  0  0  0  0
  -20.5480   16.3430   25.2391 C   0  0  0  0  0  0  0  0  0  0  0  0
  -19.8292   17.3902   26.0740 C   0  0  0  0  0  0  0  0  0  0  0  0
  -18.3478   17.1038   25.9588 C   0  0  0  0  0  0  0  0  0  0  0  0
  -18.3076   16.1688   24.8494 N   0  0  0  0  0  0  0  0  0  0  0  0
  -17.3867   16.0461   23.7720 C   0  0  0  0  0  0  0  0  0  0  0  0
  -16.2432   16.5720   23.8146 O   0  0  0  0  0  0  0  0  0  0  0  0
  -17.7937   15.2754   22.5698 C   0  0  0  0  0  0  0  0  0  0  0  0
  -18.5669   14.1616   23.0296 N   0  0  0  0  0  0  0  0  0  0  0  0
  -18.4824   12.7367   22.8793 C   0  0  0  0  0  0  0  0  0  0  0  0
  -17.8114   12.1308   22.0048 O   0  0  0  0  0  0  0  0  0  0  0  0
  -21.2823   14.3147   22.6243 H   0  0  0  0  0  0  0  0  0  0  0  0
  -20.9691   11.0377   22.4261 C   0  0  0  0  0  0  0  0  0  0  0  0
  -21.1135   12.0418   21.6822 O   0  0  0  0  0  0  0  0  0  0  0  0
  -20.1205   11.0455   23.5543 N   0  0  0  0  0  0  0  0  0  0  0  0
  -20.0789   10.1382   24.1080 H   0  0  0  0  0  0  0  0  0  0  0  0
  -19.7353    7.2540   20.8172 C   0  0  0  0  0  0  0  0  0  0  0  0
  -21.0886    7.7141   20.9466 N   0  0  0  0  0  0  0  0  0  0  0  0
  -21.2575    9.1177   20.8485 C   0  0  0  0  0  0  0  0  0  0  0  0
  -21.7401    9.8105   22.0706 C   0  0  0  0  0  0  0  0  0  0  0  0
  -21.9186    8.9104   23.2772 C   0  0  0  0  0  0  0  0  0  0  0  0
  -22.7577    7.7767   22.7745 C   0  0  0  0  0  0  0  0  0  0  0  0
  -21.8971    6.9794   21.8346 C   0  0  0  0  0  0  0  0  0  0  0  0
  -22.7468    5.8962   21.1788 C   0  0  0  0  0  0  0  0  0  0  0  0
  -23.2725    5.0109   22.2471 C   0  0  0  0  0  0  0  0  0  0  0  0
  -23.6278    3.6834   22.3647 C   0  0  0  0  0  0  0  0  0  0  0  0
  -24.0546    3.4635   23.6450 N   0  0  0  0  0  0  0  0  0  0  0  0
  -23.9831    4.6082   24.3489 C   0  0  0  0  0  0  0  0  0  0  0  0
  -24.2622    5.0095   25.6378 C   0  0  0  0  0  0  0  0  0  0  0  0
  -24.0531    6.3374   26.0214 C   0  0  0  0  0  0  0  0  0  0  0  0
  -23.5611    7.2762   25.1131 C   0  0  0  0  0  0  0  0  0  0  0  0
  -23.2786    6.8743   23.8116 C   0  0  0  0  0  0  0  0  0  0  0  0
  -23.5012    5.5603   23.4857 C   0  0  0  0  0  0  0  0  0  0  0  0
  -24.3935    2.5594   24.0573 H   0  0  0  0  0  0  0  0  0  0  0  0
  -18.5249   16.1455   21.5732 C   0  0  0  0  0  0  0  0  0  0  0  0
  -17.8160   15.9497   20.2608 C   0  0  0  0  0  0  0  0  0  0  0  0
  -17.2119   14.7139   20.0836 C   0  0  0  0  0  0  0  0  0  0  0  0
  -16.5332   14.4319   18.9098 C   0  0  0  0  0  0  0  0  0  0  0  0
  -16.4760   15.4119   17.9259 C   0  0  0  0  0  0  0  0  0  0  0  0
  -17.0903   16.6362   18.1347 C   0  0  0  0  0  0  0  0  0  0  0  0
  -17.7718   16.9350   19.2998 C   0  0  0  0  0  0  0  0  0  0  0  0
 22 23  1  0
 23 24  1  0
 24 25  1  0
 25 26  1  0
 26 27  1  0
 27 28  1  0
 28 29  1  0
 29 30  1  0
 30 31  2  0
 31 32  1  0
 32 33  1  0
 33 34  2  0
 34 35  1  0
 35 36  2  0
 36 37  1  0
 37 38  2  0
 25 18  1  0
 18 19  2  0
 18 20  1  0
  1 20  1  0
  1  2  1  0
  1  3  1  0
  3  4  1  0
  4  5  1  0
  4  6  1  0
  6  7  1  0
  7  8  1  0
  8  9  1  0
  9 10  1  0
 10 11  1  0
 11 12  2  0
 11 13  1  0
 13 40  1  0
 40 41  1  0
 41 42  2  0
 42 43  1  0
 43 44  2  0
 44 45  1  0
 45 46  2  0
 13 14  1  0
 14 15  1  0
 15 16  2  0
 28 23  1  0
 37 27  1  0
 38 30  1  0
 38 33  1  0
 15  1  1  0
 14  4  1  0
 10  6  1  0
 46 41  1  0
 32 39  1  0
 20 21  1  0
  5 17  1  0
M  END
> <minimizedAffinity>
-12.88054

> <CNNscore>
0.5183534026

> <CNNaffinity>
7.3809041977

> <CNN_VS>
3.8259167671

> <CNNaffinity_variance>
0.1703465879
$$$$