
     RDKit          3D

 80 87  0  0  0  0  0  0  0  0999 V2000
    3.4994   -2.9098   -0.7240 C   0  0  0  0  0  0  0  0  0  0  0  0
    3.8925   -1.9339    0.2522 N   0  0  0  0  0  0  0  0  0  0  0  0
    2.8267   -1.2015    0.8318 C   0  0  0  0  0  0  0  0  0  0  0  0
    2.7958    0.2557    0.5451 C   0  0  1  0  0  0  0  0  0  0  0  0
    3.8854    0.7375   -0.3921 C   0  0  0  0  0  0  0  0  0  0  0  0
    5.1506    0.1981    0.2000 C   0  0  1  0  0  0  0  0  0  0  0  0
    5.1218   -1.2926    0.0084 C   0  0  1  0  0  0  0  0  0  0  0  0
    6.3183   -1.9100    0.7243 C   0  0  0  0  0  0  0  0  0  0  0  0
    7.5550   -1.3530    0.1227 C   0  0  0  0  0  0  0  0  0  0  0  0
    8.8490   -1.7817   -0.0873 C   0  0  0  0  0  0  0  0  0  0  0  0
    9.5393   -0.7789   -0.7099 N   0  0  0  0  0  0  0  0  0  0  0  0
    8.7275    0.2765   -0.9044 C   0  0  0  0  0  0  0  0  0  0  0  0
    8.8363    1.5340   -1.4584 C   0  0  0  0  0  0  0  0  0  0  0  0
    7.7311    2.3898   -1.4821 C   0  0  0  0  0  0  0  0  0  0  0  0
    6.5045    1.9903   -0.9489 C   0  0  0  0  0  0  0  0  0  0  0  0
    6.3916    0.7218   -0.3890 C   0  0  0  0  0  0  0  0  0  0  0  0
    7.5054   -0.0792   -0.3906 C   0  0  0  0  0  0  0  0  0  0  0  0
    1.4599    0.7709    0.1246 C   0  0  0  0  0  0  0  0  0  0  0  0
    1.3825    1.3052   -1.0116 O   0  0  0  0  0  0  0  0  0  0  0  0
    0.3462    0.6515    0.9839 N   0  0  0  0  0  0  0  0  0  0  0  0
   -0.9759    1.1248    0.6489 C   0  0  2  0  0  0  0  0  0  0  0  0
   -0.9913    2.6128    0.3897 C   0  0  0  0  0  0  0  0  0  0  0  0
   -1.8205    0.8918    1.7143 O   0  0  0  0  0  0  0  0  0  0  0  0
   -3.0353    0.4382    1.2557 C   0  0  1  0  0  0  0  0  0  0  0  0
   -3.3119   -0.7554    1.9232 O   0  0  0  0  0  0  0  0  0  0  0  0
   -4.0785    1.4251    1.6690 C   0  0  2  0  0  0  0  0  0  0  0  0
   -4.8866    0.9592    2.8833 C   0  0  0  0  0  0  0  0  0  0  0  0
   -6.1451    1.8051    2.7786 C   0  0  0  0  0  0  0  0  0  0  0  0
   -6.1700    2.3856    1.3814 C   0  0  0  0  0  0  0  0  0  0  0  0
   -5.1531    1.5972    0.7100 N   0  0  0  0  0  0  0  0  0  0  0  0
   -5.1160    1.0568   -0.6056 C   0  0  0  0  0  0  0  0  0  0  0  0
   -5.8748    1.4799   -1.5173 O   0  0  0  0  0  0  0  0  0  0  0  0
   -4.1536   -0.0345   -0.9017 C   0  0  2  0  0  0  0  0  0  0  0  0
   -4.7378   -1.3920   -0.5838 C   0  0  0  0  0  0  0  0  0  0  0  0
   -5.9610   -1.5244   -1.4495 C   0  0  0  0  0  0  0  0  0  0  0  0
   -7.1446   -1.0666   -0.8901 C   0  0  0  0  0  0  0  0  0  0  0  0
   -8.3284   -1.1428   -1.6048 C   0  0  0  0  0  0  0  0  0  0  0  0
   -8.2961   -1.6849   -2.8841 C   0  0  0  0  0  0  0  0  0  0  0  0
   -7.0967   -2.1332   -3.4137 C   0  0  0  0  0  0  0  0  0  0  0  0
   -5.9058   -2.0650   -2.7148 C   0  0  0  0  0  0  0  0  0  0  0  0
   -2.9558    0.2557   -0.1732 N   0  0  0  0  0  0  0  0  0  0  0  0
   -1.5738    0.4282   -0.5203 C   0  0  0  0  0  0  0  0  0  0  0  0
   -1.0357    0.0531   -1.5935 O   0  0  0  0  0  0  0  0  0  0  0  0
    3.4834   -3.9049   -0.2248 H   0  0  0  0  0  0  0  0  0  0  0  0
    4.2582   -2.9516   -1.5164 H   0  0  0  0  0  0  0  0  0  0  0  0
    2.4863   -2.7393   -1.1346 H   0  0  0  0  0  0  0  0  0  0  0  0
    1.8737   -1.6421    0.4664 H   0  0  0  0  0  0  0  0  0  0  0  0
    2.8356   -1.4420    1.9304 H   0  0  0  0  0  0  0  0  0  0  0  0
    3.0375    0.7673    1.5229 H   0  0  0  0  0  0  0  0  0  0  0  0
    3.8262    1.8336   -0.4357 H   0  0  0  0  0  0  0  0  0  0  0  0
    3.7322    0.2662   -1.3852 H   0  0  0  0  0  0  0  0  0  0  0  0
    5.1378    0.4360    1.2817 H   0  0  0  0  0  0  0  0  0  0  0  0
    5.3589   -1.4483   -1.0855 H   0  0  0  0  0  0  0  0  0  0  0  0
    6.2869   -3.0030    0.5278 H   0  0  0  0  0  0  0  0  0  0  0  0
    6.2281   -1.6888    1.8020 H   0  0  0  0  0  0  0  0  0  0  0  0
    9.2339   -2.7445    0.1966 H   0  0  0  0  0  0  0  0  0  0  0  0
   10.5460   -0.7880   -1.0078 H   0  0  0  0  0  0  0  0  0  0  0  0
    9.7985    1.8368   -1.8723 H   0  0  0  0  0  0  0  0  0  0  0  0
    7.8325    3.3857   -1.9255 H   0  0  0  0  0  0  0  0  0  0  0  0
    5.6375    2.6357   -0.9566 H   0  0  0  0  0  0  0  0  0  0  0  0
    0.5325    0.1815    1.9198 H   0  0  0  0  0  0  0  0  0  0  0  0
   -1.9248    2.9134   -0.1102 H   0  0  0  0  0  0  0  0  0  0  0  0
   -0.0998    2.9017   -0.1718 H   0  0  0  0  0  0  0  0  0  0  0  0
   -0.9975    3.1757    1.3654 H   0  0  0  0  0  0  0  0  0  0  0  0
   -2.4836   -1.2839    2.0557 H   0  0  0  0  0  0  0  0  0  0  0  0
   -3.6325    2.4065    1.9635 H   0  0  0  0  0  0  0  0  0  0  0  0
   -5.2064   -0.0970    2.6956 H   0  0  0  0  0  0  0  0  0  0  0  0
   -4.3403    1.0983    3.8282 H   0  0  0  0  0  0  0  0  0  0  0  0
   -7.0600    1.1898    2.9075 H   0  0  0  0  0  0  0  0  0  0  0  0
   -6.1777    2.5787    3.5685 H   0  0  0  0  0  0  0  0  0  0  0  0
   -5.8677    3.4647    1.4205 H   0  0  0  0  0  0  0  0  0  0  0  0
   -7.1576    2.2974    0.8898 H   0  0  0  0  0  0  0  0  0  0  0  0
   -3.9670   -0.0388   -1.9971 H   0  0  0  0  0  0  0  0  0  0  0  0
   -4.9729   -1.5614    0.4644 H   0  0  0  0  0  0  0  0  0  0  0  0
   -4.0628   -2.2019   -0.9264 H   0  0  0  0  0  0  0  0  0  0  0  0
   -7.1983   -0.6441    0.0938 H   0  0  0  0  0  0  0  0  0  0  0  0
   -9.2521   -0.7823   -1.1604 H   0  0  0  0  0  0  0  0  0  0  0  0
   -9.2252   -1.7429   -3.4408 H   0  0  0  0  0  0  0  0  0  0  0  0
   -7.1111   -2.5554   -4.4274 H   0  0  0  0  0  0  0  0  0  0  0  0
   -4.9593   -2.4142   -3.1216 H   0  0  0  0  0  0  0  0  0  0  0  0
  1  2  1  0
  2  3  1  0
  3  4  1  0
  4  5  1  0
  5  6  1  0
  6  7  1  0
  7  8  1  0
  8  9  1  0
  9 10  2  0
 10 11  1  0
 11 12  1  0
 12 13  2  0
 13 14  1  0
 14 15  2  0
 15 16  1  0
 16 17  2  0
  4 18  1  0
 18 19  2  0
 18 20  1  0
 21 20  1  1
 21 22  1  0
 21 23  1  0
 23 24  1  0
 24 25  1  1
 24 26  1  0
 26 27  1  0
 27 28  1  0
 28 29  1  0
 29 30  1  0
 30 31  1  0
 31 32  2  0
 31 33  1  0
 33 34  1  0
 34 35  1  0
 35 36  2  0
 36 37  1  0
 37 38  2  0
 38 39  1  0
 39 40  2  0
 33 41  1  0
 41 42  1  0
 42 43  2  0
  7  2  1  0
 16  6  1  0
 17  9  1  0
 17 12  1  0
 42 21  1  0
 41 24  1  0
 30 26  1  0
 40 35  1  0
  1 44  1  0
  1 45  1  0
  1 46  1  0
  3 47  1  0
  3 48  1  0
  4 49  1  1
  5 50  1  0
  5 51  1  0
  6 52  1  1
  7 53  1  6
  8 54  1  0
  8 55  1  0
 10 56  1  0
 11 57  1  0
 13 58  1  0
 14 59  1  0
 15 60  1  0
 20 61  1  0
 22 62  1  0
 22 63  1  0
 22 64  1  0
 25 65  1  0
 26 66  1  1
 27 67  1  0
 27 68  1  0
 28 69  1  0
 28 70  1  0
 29 71  1  0
 29 72  1  0
 33 73  1  6
 34 74  1  0
 34 75  1  0
 36 76  1  0
 37 77  1  0
 38 78  1  0
 39 79  1  0
 40 80  1  0
M  END
$$$$
