
     RDKit          3D

 80 87  0  0  0  0  0  0  0  0999 V2000
    4.4952   -2.7956    1.7240 C   0  0  0  0  0  0  0  0  0  0  0  0
    4.0223   -1.7953    0.7656 N   0  0  0  0  0  0  0  0  0  0  0  0
    2.9704   -1.0719    1.4484 C   0  0  0  0  0  0  0  0  0  0  0  0
    2.3857    0.0374    0.6240 C   0  0  1  0  0  0  0  0  0  0  0  0
    3.3744    0.6443   -0.3512 C   0  0  0  0  0  0  0  0  0  0  0  0
    4.7278    0.5046    0.2659 C   0  0  1  0  0  0  0  0  0  0  0  0
    5.0659   -0.9697    0.2731 C   0  0  1  0  0  0  0  0  0  0  0  0
    6.4200   -1.2190    0.9267 C   0  0  0  0  0  0  0  0  0  0  0  0
    7.4514   -0.4600    0.1752 C   0  0  0  0  0  0  0  0  0  0  0  0
    8.7993   -0.5964   -0.0869 C   0  0  0  0  0  0  0  0  0  0  0  0
    9.1945    0.4572   -0.8613 N   0  0  0  0  0  0  0  0  0  0  0  0
    8.1466    1.2638   -1.1042 C   0  0  0  0  0  0  0  0  0  0  0  0
    7.9255    2.4367   -1.7949 C   0  0  0  0  0  0  0  0  0  0  0  0
    6.6579    2.9887   -1.8186 C   0  0  0  0  0  0  0  0  0  0  0  0
    5.5798    2.4001   -1.1638 C   0  0  0  0  0  0  0  0  0  0  0  0
    5.8004    1.2093   -0.4616 C   0  0  0  0  0  0  0  0  0  0  0  0
    7.0745    0.6976   -0.4654 C   0  0  0  0  0  0  0  0  0  0  0  0
    1.1817   -0.3494   -0.1281 C   0  0  0  0  0  0  0  0  0  0  0  0
    1.1314   -0.2820   -1.3993 O   0  0  0  0  0  0  0  0  0  0  0  0
   -0.0131   -0.8256    0.4990 N   0  0  0  0  0  0  0  0  0  0  0  0
   -1.1108   -1.1646   -0.3871 C   0  0  2  0  0  0  0  0  0  0  0  0
   -0.6772   -2.2512   -1.3298 C   0  0  0  0  0  0  0  0  0  0  0  0
   -1.4916    0.0015   -1.0302 O   0  0  0  0  0  0  0  0  0  0  0  0
   -2.5426    0.5743   -0.3428 C   0  0  1  0  0  0  0  0  0  0  0  0
   -2.1938    1.2591    0.7981 O   0  0  0  0  0  0  0  0  0  0  0  0
   -3.3541    1.4928   -1.2173 C   0  0  2  0  0  0  0  0  0  0  0  0
   -2.5975    2.8020   -1.3111 C   0  0  0  0  0  0  0  0  0  0  0  0
   -3.5154    3.8804   -0.7924 C   0  0  0  0  0  0  0  0  0  0  0  0
   -4.8891    3.2081   -0.8124 C   0  0  0  0  0  0  0  0  0  0  0  0
   -4.5527    1.8657   -0.4541 N   0  0  0  0  0  0  0  0  0  0  0  0
   -5.0925    0.8597    0.4341 C   0  0  0  0  0  0  0  0  0  0  0  0
   -5.7918    1.2887    1.3684 O   0  0  0  0  0  0  0  0  0  0  0  0
   -4.7516   -0.5292    0.1275 C   0  0  2  0  0  0  0  0  0  0  0  0
   -5.3799   -1.5403    0.9977 C   0  0  0  0  0  0  0  0  0  0  0  0
   -6.8473   -1.4956    0.9273 C   0  0  0  0  0  0  0  0  0  0  0  0
   -7.6784   -0.8781    1.8237 C   0  0  0  0  0  0  0  0  0  0  0  0
   -9.0658   -0.8531    1.6770 C   0  0  0  0  0  0  0  0  0  0  0  0
   -9.6178   -1.4826    0.5758 C   0  0  0  0  0  0  0  0  0  0  0  0
   -8.8203   -2.1112   -0.3416 C   0  0  0  0  0  0  0  0  0  0  0  0
   -7.4475   -2.1168   -0.1662 C   0  0  0  0  0  0  0  0  0  0  0  0
   -3.3043   -0.6090    0.0852 N   0  0  0  0  0  0  0  0  0  0  0  0
   -2.3199   -1.5943    0.3635 C   0  0  0  0  0  0  0  0  0  0  0  0
   -2.5061   -2.5908    1.0989 O   0  0  0  0  0  0  0  0  0  0  0  0
    5.1512   -3.5539    1.2695 H   0  0  0  0  0  0  0  0  0  0  0  0
    3.6230   -3.3482    2.1198 H   0  0  0  0  0  0  0  0  0  0  0  0
    4.9489   -2.2460    2.5728 H   0  0  0  0  0  0  0  0  0  0  0  0
    3.4093   -0.6913    2.3959 H   0  0  0  0  0  0  0  0  0  0  0  0
    2.2187   -1.8352    1.7373 H   0  0  0  0  0  0  0  0  0  0  0  0
    2.0840    0.8529    1.3186 H   0  0  0  0  0  0  0  0  0  0  0  0
    3.3251    0.0287   -1.2905 H   0  0  0  0  0  0  0  0  0  0  0  0
    3.0622    1.6822   -0.5357 H   0  0  0  0  0  0  0  0  0  0  0  0
    4.6815    0.8173    1.3386 H   0  0  0  0  0  0  0  0  0  0  0  0
    5.2292   -1.2350   -0.8080 H   0  0  0  0  0  0  0  0  0  0  0  0
    6.4085   -0.9400    2.0048 H   0  0  0  0  0  0  0  0  0  0  0  0
    6.6803   -2.2880    0.7856 H   0  0  0  0  0  0  0  0  0  0  0  0
    9.4177   -1.4110    0.2726 H   0  0  0  0  0  0  0  0  0  0  0  0
   10.1662    0.6266   -1.2213 H   0  0  0  0  0  0  0  0  0  0  0  0
    8.7767    2.8788   -2.2979 H   0  0  0  0  0  0  0  0  0  0  0  0
    6.5250    3.9167   -2.3757 H   0  0  0  0  0  0  0  0  0  0  0  0
    4.6125    2.8329   -1.1887 H   0  0  0  0  0  0  0  0  0  0  0  0
   -0.0569   -0.9115    1.5381 H   0  0  0  0  0  0  0  0  0  0  0  0
   -0.5505   -1.7783   -2.3319 H   0  0  0  0  0  0  0  0  0  0  0  0
   -1.4250   -3.0525   -1.3494 H   0  0  0  0  0  0  0  0  0  0  0  0
    0.2878   -2.6851   -0.9717 H   0  0  0  0  0  0  0  0  0  0  0  0
   -1.2390    1.4351    0.8950 H   0  0  0  0  0  0  0  0  0  0  0  0
   -3.5942    1.0758   -2.2060 H   0  0  0  0  0  0  0  0  0  0  0  0
   -2.2482    2.9812   -2.3492 H   0  0  0  0  0  0  0  0  0  0  0  0
   -1.6866    2.8162   -0.6674 H   0  0  0  0  0  0  0  0  0  0  0  0
   -3.5025    4.7941   -1.3978 H   0  0  0  0  0  0  0  0  0  0  0  0
   -3.2915    4.1104    0.2893 H   0  0  0  0  0  0  0  0  0  0  0  0
   -5.1971    3.2119   -1.8777 H   0  0  0  0  0  0  0  0  0  0  0  0
   -5.5977    3.6922   -0.1417 H   0  0  0  0  0  0  0  0  0  0  0  0
   -5.1736   -0.7072   -0.9198 H   0  0  0  0  0  0  0  0  0  0  0  0
   -5.0612   -2.5856    0.7801 H   0  0  0  0  0  0  0  0  0  0  0  0
   -5.0799   -1.2902    2.0611 H   0  0  0  0  0  0  0  0  0  0  0  0
   -7.3000   -0.3931    2.7079 H   0  0  0  0  0  0  0  0  0  0  0  0
   -9.7034   -0.3593    2.3969 H   0  0  0  0  0  0  0  0  0  0  0  0
  -10.6929   -1.4957    0.4089 H   0  0  0  0  0  0  0  0  0  0  0  0
   -9.2171   -2.6141   -1.2144 H   0  0  0  0  0  0  0  0  0  0  0  0
   -6.8340   -2.6217   -0.9064 H   0  0  0  0  0  0  0  0  0  0  0  0
  1  2  1  0
  2  3  1  0
  3  4  1  0
  4  5  1  0
  5  6  1  0
  6  7  1  0
  7  8  1  0
  8  9  1  0
  9 10  2  0
 10 11  1  0
 11 12  1  0
 12 13  2  0
 13 14  1  0
 14 15  2  0
 15 16  1  0
 16 17  2  0
  4 18  1  0
 18 19  2  0
 18 20  1  0
 21 20  1  1
 21 22  1  0
 21 23  1  0
 23 24  1  0
 24 25  1  1
 24 26  1  0
 26 27  1  0
 27 28  1  0
 28 29  1  0
 29 30  1  0
 30 31  1  0
 31 32  2  0
 31 33  1  0
 33 34  1  0
 34 35  1  0
 35 36  2  0
 36 37  1  0
 37 38  2  0
 38 39  1  0
 39 40  2  0
 33 41  1  0
 41 42  1  0
 42 43  2  0
  7  2  1  0
 16  6  1  0
 17  9  1  0
 17 12  1  0
 42 21  1  0
 41 24  1  0
 30 26  1  0
 40 35  1  0
  1 44  1  0
  1 45  1  0
  1 46  1  0
  3 47  1  0
  3 48  1  0
  4 49  1  1
  5 50  1  0
  5 51  1  0
  6 52  1  1
  7 53  1  6
  8 54  1  0
  8 55  1  0
 10 56  1  0
 11 57  1  0
 13 58  1  0
 14 59  1  0
 15 60  1  0
 20 61  1  0
 22 62  1  0
 22 63  1  0
 22 64  1  0
 25 65  1  0
 26 66  1  6
 27 67  1  0
 27 68  1  0
 28 69  1  0
 28 70  1  0
 29 71  1  0
 29 72  1  0
 33 73  1  6
 34 74  1  0
 34 75  1  0
 36 76  1  0
 37 77  1  0
 38 78  1  0
 39 79  1  0
 40 80  1  0
M  END
$$$$
