


 46 53  0  0  0  0  0  0  0  0999 V2000
  -21.1127   12.5606   19.7986 C   0  0  0  0  0  0  0  0  0  0  0  0
  -21.6254   13.3081   18.5903 C   0  0  0  0  0  0  0  0  0  0  0  0
  -19.7953   12.2396   19.5457 O   0  0  0  0  0  0  0  0  0  0  0  0
  -18.9668   13.1291   20.1893 C   0  0  0  0  0  0  0  0  0  0  0  0
  -18.0729   12.3828   20.9579 O   0  0  0  0  0  0  0  0  0  0  0  0
  -18.1642   13.8420   19.1497 C   0  0  0  0  0  0  0  0  0  0  0  0
  -16.7339   13.3073   19.0360 C   0  0  0  0  0  0  0  0  0  0  0  0
  -16.0094   14.4612   18.3623 C   0  0  0  0  0  0  0  0  0  0  0  0
  -16.9085   15.6729   18.4784 C   0  0  0  0  0  0  0  0  0  0  0  0
  -17.8834   15.2311   19.4586 N   0  0  0  0  0  0  0  0  0  0  0  0
  -18.4989   15.9287   20.5351 C   0  0  0  0  0  0  0  0  0  0  0  0
  -18.5073   17.1868   20.5907 O   0  0  0  0  0  0  0  0  0  0  0  0
  -19.1460   15.1438   21.6167 C   0  0  0  0  0  0  0  0  0  0  0  0
  -19.7703   14.0142   20.9970 N   0  0  0  0  0  0  0  0  0  0  0  0
  -21.1032   13.4828   20.9645 C   0  0  0  0  0  0  0  0  0  0  0  0
  -22.0254   13.7680   21.7708 O   0  0  0  0  0  0  0  0  0  0  0  0
  -18.5220   11.5893   21.3473 H   0  0  0  0  0  0  0  0  0  0  0  0
  -21.5175   10.4026   21.0284 C   0  0  0  0  0  0  0  0  0  0  0  0
  -20.5296   10.5518   21.7927 O   0  0  0  0  0  0  0  0  0  0  0  0
  -21.8565   11.3459   20.0343 N   0  0  0  0  0  0  0  0  0  0  0  0
  -22.7129   11.1126   19.4482 H   0  0  0  0  0  0  0  0  0  0  0  0
  -20.6331    6.2564   20.3548 C   0  0  0  0  0  0  0  0  0  0  0  0
  -21.9299    6.8085   20.6257 N   0  0  0  0  0  0  0  0  0  0  0  0
  -22.1258    8.1345   20.1657 C   0  0  0  0  0  0  0  0  0  0  0  0
  -22.3384    9.1696   21.2096 C   0  0  0  0  0  0  0  0  0  0  0  0
  -22.2463    8.6579   22.6335 C   0  0  0  0  0  0  0  0  0  0  0  0
  -23.1661    7.4767   22.6644 C   0  0  0  0  0  0  0  0  0  0  0  0
  -22.5227    6.4002   21.8355 C   0  0  0  0  0  0  0  0  0  0  0  0
  -23.4862    5.2248   21.7109 C   0  0  0  0  0  0  0  0  0  0  0  0
  -23.7631    4.7074   23.0737 C   0  0  0  0  0  0  0  0  0  0  0  0
  -24.0753    3.4888   23.6394 C   0  0  0  0  0  0  0  0  0  0  0  0
  -24.2145    3.6632   24.9884 N   0  0  0  0  0  0  0  0  0  0  0  0
  -24.0010    4.9541   25.3025 C   0  0  0  0  0  0  0  0  0  0  0  0
  -23.9985    5.7176   26.4502 C   0  0  0  0  0  0  0  0  0  0  0  0
  -23.7209    7.0862   26.3835 C   0  0  0  0  0  0  0  0  0  0  0  0
  -23.4429    7.7018   25.1619 C   0  0  0  0  0  0  0  0  0  0  0  0
  -23.4447    6.9339   24.0019 C   0  0  0  0  0  0  0  0  0  0  0  0
  -23.7231    5.5958   24.1214 C   0  0  0  0  0  0  0  0  0  0  0  0
  -24.4502    2.9324   25.7044 H   0  0  0  0  0  0  0  0  0  0  0  0
  -18.1584   14.7680   22.6977 C   0  0  0  0  0  0  0  0  0  0  0  0
  -17.6251   16.0680   23.2351 C   0  0  0  0  0  0  0  0  0  0  0  0
  -18.4980   16.7899   24.0353 C   0  0  0  0  0  0  0  0  0  0  0  0
  -18.1043   18.0007   24.5803 C   0  0  0  0  0  0  0  0  0  0  0  0
  -16.8238   18.4658   24.3053 C   0  0  0  0  0  0  0  0  0  0  0  0
  -15.9763   17.7200   23.5019 C   0  0  0  0  0  0  0  0  0  0  0  0
  -16.3524   16.5097   22.9495 C   0  0  0  0  0  0  0  0  0  0  0  0
 22 23  1  0
 23 24  1  0
 24 25  1  0
 25 26  1  0
 26 27  1  0
 27 28  1  0
 28 29  1  0
 29 30  1  0
 30 31  2  0
 31 32  1  0
 32 33  1  0
 33 34  2  0
 34 35  1  0
 35 36  2  0
 36 37  1  0
 37 38  2  0
 25 18  1  0
 18 19  2  0
 18 20  1  0
  1 20  1  0
  1  2  1  0
  1  3  1  0
  3  4  1  0
  4  5  1  0
  4  6  1  0
  6  7  1  0
  7  8  1  0
  8  9  1  0
  9 10  1  0
 10 11  1  0
 11 12  2  0
 11 13  1  0
 13 40  1  0
 40 41  1  0
 41 42  2  0
 42 43  1  0
 43 44  2  0
 44 45  1  0
 45 46  2  0
 13 14  1  0
 14 15  1  0
 15 16  2  0
 28 23  1  0
 37 27  1  0
 38 30  1  0
 38 33  1  0
 15  1  1  0
 14  4  1  0
 10  6  1  0
 46 41  1  0
 32 39  1  0
 20 21  1  0
  5 17  1  0
M  END
> <minimizedAffinity>
-11.68305

> <CNNscore>
0.8809778094

> <CNNaffinity>
8.3566894531

> <CNN_VS>
7.3620581627

> <CNNaffinity_variance>
0.1788463593

$$$$



 46 53  0  0  0  0  0  0  0  0999 V2000
  -20.9335   12.0206   19.3705 C   0  0  0  0  0  0  0  0  0  0  0  0
  -21.2796   12.6234   18.0294 C   0  0  0  0  0  0  0  0  0  0  0  0
  -19.5704   11.8094   19.3785 O   0  0  0  0  0  0  0  0  0  0  0  0
  -18.9461   12.8198   20.0722 C   0  0  0  0  0  0  0  0  0  0  0  0
  -18.1473   12.2220   21.0476 O   0  0  0  0  0  0  0  0  0  0  0  0
  -18.0303   13.5269   19.1265 C   0  0  0  0  0  0  0  0  0  0  0  0
  -16.5642   13.1248   19.3098 C   0  0  0  0  0  0  0  0  0  0  0  0
  -15.8266   14.2895   18.6697 C   0  0  0  0  0  0  0  0  0  0  0  0
  -16.8272   15.4146   18.5192 C   0  0  0  0  0  0  0  0  0  0  0  0
  -17.9233   14.9557   19.3525 N   0  0  0  0  0  0  0  0  0  0  0  0
  -18.7769   15.6693   20.2393 C   0  0  0  0  0  0  0  0  0  0  0  0
  -18.8972   16.9215   20.1788 O   0  0  0  0  0  0  0  0  0  0  0  0
  -19.5419   14.9087   21.2596 C   0  0  0  0  0  0  0  0  0  0  0  0
  -19.9509   13.6815   20.6461 N   0  0  0  0  0  0  0  0  0  0  0  0
  -21.2086   13.0238   20.4324 C   0  0  0  0  0  0  0  0  0  0  0  0
  -22.2808   13.2786   21.0386 O   0  0  0  0  0  0  0  0  0  0  0  0
  -18.5931   11.4203   21.4238 H   0  0  0  0  0  0  0  0  0  0  0  0
  -21.4389    9.9716   20.7413 C   0  0  0  0  0  0  0  0  0  0  0  0
  -20.6811   10.3106   21.6865 O   0  0  0  0  0  0  0  0  0  0  0  0
  -21.6063   10.7612   19.5831 N   0  0  0  0  0  0  0  0  0  0  0  0
  -22.2728   10.3725   18.8508 H   0  0  0  0  0  0  0  0  0  0  0  0
  -20.1257    5.8945   20.4580 C   0  0  0  0  0  0  0  0  0  0  0  0
  -21.4892    6.3391   20.5136 N   0  0  0  0  0  0  0  0  0  0  0  0
  -21.7277    7.6165   19.9484 C   0  0  0  0  0  0  0  0  0  0  0  0
  -22.1716    8.6797   20.8860 C   0  0  0  0  0  0  0  0  0  0  0  0
  -22.2399    8.2516   22.3385 C   0  0  0  0  0  0  0  0  0  0  0  0
  -23.0532    6.9945   22.3179 C   0  0  0  0  0  0  0  0  0  0  0  0
  -22.2115    5.9404   21.6544 C   0  0  0  0  0  0  0  0  0  0  0  0
  -23.0463    4.6772   21.4736 C   0  0  0  0  0  0  0  0  0  0  0  0
  -23.4694    4.2066   22.8157 C   0  0  0  0  0  0  0  0  0  0  0  0
  -23.7561    2.9950   23.4091 C   0  0  0  0  0  0  0  0  0  0  0  0
  -24.0991    3.2243   24.7128 N   0  0  0  0  0  0  0  0  0  0  0  0
  -24.0406    4.5437   24.9710 C   0  0  0  0  0  0  0  0  0  0  0  0
  -24.2643    5.3616   26.0577 C   0  0  0  0  0  0  0  0  0  0  0  0
  -24.0951    6.7446   25.9434 C   0  0  0  0  0  0  0  0  0  0  0  0
  -23.6989    7.3201   24.7349 C   0  0  0  0  0  0  0  0  0  0  0  0
  -23.4724    6.4972   23.6363 C   0  0  0  0  0  0  0  0  0  0  0  0
  -23.6525    5.1471   23.8008 C   0  0  0  0  0  0  0  0  0  0  0  0
  -24.3722    2.5124   25.4345 H   0  0  0  0  0  0  0  0  0  0  0  0
  -18.7375   14.7110   22.5241 C   0  0  0  0  0  0  0  0  0  0  0  0
  -19.6610   14.0257   23.4940 C   0  0  0  0  0  0  0  0  0  0  0  0
  -20.8198   14.7185   23.8111 C   0  0  0  0  0  0  0  0  0  0  0  0
  -21.7371   14.1747   24.6948 C   0  0  0  0  0  0  0  0  0  0  0  0
  -21.4658   12.9290   25.2480 C   0  0  0  0  0  0  0  0  0  0  0  0
  -20.2985   12.2631   24.9101 C   0  0  0  0  0  0  0  0  0  0  0  0
  -19.3719   12.7906   24.0301 C   0  0  0  0  0  0  0  0  0  0  0  0
 22 23  1  0
 23 24  1  0
 24 25  1  0
 25 26  1  0
 26 27  1  0
 27 28  1  0
 28 29  1  0
 29 30  1  0
 30 31  2  0
 31 32  1  0
 32 33  1  0
 33 34  2  0
 34 35  1  0
 35 36  2  0
 36 37  1  0
 37 38  2  0
 25 18  1  0
 18 19  2  0
 18 20  1  0
  1 20  1  0
  1  2  1  0
  1  3  1  0
  3  4  1  0
  4  5  1  0
  4  6  1  0
  6  7  1  0
  7  8  1  0
  8  9  1  0
  9 10  1  0
 10 11  1  0
 11 12  2  0
 11 13  1  0
 13 40  1  0
 40 41  1  0
 41 42  2  0
 42 43  1  0
 43 44  2  0
 44 45  1  0
 45 46  2  0
 13 14  1  0
 14 15  1  0
 15 16  2  0
 28 23  1  0
 37 27  1  0
 38 30  1  0
 38 33  1  0
 15  1  1  0
 14  4  1  0
 10  6  1  0
 46 41  1  0
 32 39  1  0
 20 21  1  0
  5 17  1  0
M  END
> <minimizedAffinity>
-10.68095

> <CNNscore>
0.7835468650

> <CNNaffinity>
8.3288002014

> <CNN_VS>
6.5260052681

> <CNNaffinity_variance>
0.2048297375

$$$$



 46 53  0  0  0  0  0  0  0  0999 V2000
  -21.7381   11.6375   19.1015 C   0  0  0  0  0  0  0  0  0  0  0  0
  -22.7984   12.1127   18.1363 C   0  0  0  0  0  0  0  0  0  0  0  0
  -20.9267   10.7615   18.4109 O   0  0  0  0  0  0  0  0  0  0  0  0
  -19.7752   11.4033   18.0186 C   0  0  0  0  0  0  0  0  0  0  0  0
  -18.6990   10.6427   18.4770 O   0  0  0  0  0  0  0  0  0  0  0  0
  -19.7246   11.3815   16.5253 C   0  0  0  0  0  0  0  0  0  0  0  0
  -18.7657   10.3193   15.9805 C   0  0  0  0  0  0  0  0  0  0  0  0
  -18.4898   10.8232   14.5733 C   0  0  0  0  0  0  0  0  0  0  0  0
  -18.9551   12.2622   14.5223 C   0  0  0  0  0  0  0  0  0  0  0  0
  -19.1413   12.5682   15.9288 N   0  0  0  0  0  0  0  0  0  0  0  0
  -18.8490   13.7477   16.6687 C   0  0  0  0  0  0  0  0  0  0  0  0
  -18.6633   14.8566   16.1014 O   0  0  0  0  0  0  0  0  0  0  0  0
  -18.7628   13.6586   18.1483 C   0  0  0  0  0  0  0  0  0  0  0  0
  -19.7727   12.7361   18.5709 N   0  0  0  0  0  0  0  0  0  0  0  0
  -20.8820   12.7923   19.4800 C   0  0  0  0  0  0  0  0  0  0  0  0
  -21.0464   13.6526   20.3828 O   0  0  0  0  0  0  0  0  0  0  0  0
  -18.8975   10.2539   19.3671 H   0  0  0  0  0  0  0  0  0  0  0  0
  -22.4025    9.5479   20.3366 C   0  0  0  0  0  0  0  0  0  0  0  0
  -21.9847    8.7774   19.4342 O   0  0  0  0  0  0  0  0  0  0  0  0
  -22.3120   10.9531   20.2357 N   0  0  0  0  0  0  0  0  0  0  0  0
  -22.6988   11.5018   21.0609 H   0  0  0  0  0  0  0  0  0  0  0  0
  -22.0457    5.5984   21.9802 C   0  0  0  0  0  0  0  0  0  0  0  0
  -22.9944    6.5969   22.3838 N   0  0  0  0  0  0  0  0  0  0  0  0
  -23.3948    7.4926   21.3612 C   0  0  0  0  0  0  0  0  0  0  0  0
  -23.0104    8.9158   21.5440 C   0  0  0  0  0  0  0  0  0  0  0  0
  -22.1778    9.1906   22.7805 C   0  0  0  0  0  0  0  0  0  0  0  0
  -22.9490    8.5566   23.8966 C   0  0  0  0  0  0  0  0  0  0  0  0
  -22.8547    7.0689   23.7027 C   0  0  0  0  0  0  0  0  0  0  0  0
  -23.7457    6.3755   24.7278 C   0  0  0  0  0  0  0  0  0  0  0  0
  -23.2580    6.7345   26.0824 C   0  0  0  0  0  0  0  0  0  0  0  0
  -23.2305    6.1424   27.3278 C   0  0  0  0  0  0  0  0  0  0  0  0
  -22.6282    7.0048   28.2015 N   0  0  0  0  0  0  0  0  0  0  0  0
  -22.2700    8.1286   27.5539 C   0  0  0  0  0  0  0  0  0  0  0  0
  -21.6504    9.3164   27.8785 C   0  0  0  0  0  0  0  0  0  0  0  0
  -21.4402   10.2905   26.8980 C   0  0  0  0  0  0  0  0  0  0  0  0
  -21.8509   10.0808   25.5805 C   0  0  0  0  0  0  0  0  0  0  0  0
  -22.4766    8.8831   25.2498 C   0  0  0  0  0  0  0  0  0  0  0  0
  -22.6590    7.9602   26.2484 C   0  0  0  0  0  0  0  0  0  0  0  0
  -22.4519    6.8545   29.2255 H   0  0  0  0  0  0  0  0  0  0  0  0
  -17.3719   13.2783   18.6020 C   0  0  0  0  0  0  0  0  0  0  0  0
  -17.0223   14.2421   19.7030 C   0  0  0  0  0  0  0  0  0  0  0  0
  -17.8003   14.1535   20.8477 C   0  0  0  0  0  0  0  0  0  0  0  0
  -17.5603   14.9960   21.9203 C   0  0  0  0  0  0  0  0  0  0  0  0
  -16.5290   15.9219   21.8175 C   0  0  0  0  0  0  0  0  0  0  0  0
  -15.7704   15.9845   20.6597 C   0  0  0  0  0  0  0  0  0  0  0  0
  -15.9958   15.1516   19.5794 C   0  0  0  0  0  0  0  0  0  0  0  0
 22 23  1  0
 23 24  1  0
 24 25  1  0
 25 26  1  0
 26 27  1  0
 27 28  1  0
 28 29  1  0
 29 30  1  0
 30 31  2  0
 31 32  1  0
 32 33  1  0
 33 34  2  0
 34 35  1  0
 35 36  2  0
 36 37  1  0
 37 38  2  0
 25 18  1  0
 18 19  2  0
 18 20  1  0
  1 20  1  0
  1  2  1  0
  1  3  1  0
  3  4  1  0
  4  5  1  0
  4  6  1  0
  6  7  1  0
  7  8  1  0
  8  9  1  0
  9 10  1  0
 10 11  1  0
 11 12  2  0
 11 13  1  0
 13 40  1  0
 40 41  1  0
 41 42  2  0
 42 43  1  0
 43 44  2  0
 44 45  1  0
 45 46  2  0
 13 14  1  0
 14 15  1  0
 15 16  2  0
 28 23  1  0
 37 27  1  0
 38 30  1  0
 38 33  1  0
 15  1  1  0
 14  4  1  0
 10  6  1  0
 46 41  1  0
 32 39  1  0
 20 21  1  0
  5 17  1  0
M  END
> <minimizedAffinity>
-11.07332

> <CNNscore>
0.5928894281

> <CNNaffinity>
8.1184844971

> <CNN_VS>
4.8133635521

> <CNNaffinity_variance>
0.1499659270

$$$$



 46 53  0  0  0  0  0  0  0  0999 V2000
  -19.5238   13.1550   22.7574 C   0  0  0  0  0  0  0  0  0  0  0  0
  -18.9244   13.4119   24.1198 C   0  0  0  0  0  0  0  0  0  0  0  0
  -20.1570   14.3174   22.3692 O   0  0  0  0  0  0  0  0  0  0  0  0
  -19.3579   15.0131   21.4921 C   0  0  0  0  0  0  0  0  0  0  0  0
  -20.1187   15.2696   20.3511 O   0  0  0  0  0  0  0  0  0  0  0  0
  -19.0375   16.3340   22.1132 C   0  0  0  0  0  0  0  0  0  0  0  0
  -19.8734   17.4789   21.5344 C   0  0  0  0  0  0  0  0  0  0  0  0
  -19.0450   18.7004   21.8977 C   0  0  0  0  0  0  0  0  0  0  0  0
  -17.6712   18.2000   22.2876 C   0  0  0  0  0  0  0  0  0  0  0  0
  -17.7061   16.8276   21.8169 N   0  0  0  0  0  0  0  0  0  0  0  0
  -16.7058   16.0372   21.1855 C   0  0  0  0  0  0  0  0  0  0  0  0
  -15.4865   16.3486   21.2344 O   0  0  0  0  0  0  0  0  0  0  0  0
  -17.1203   14.8145   20.4519 C   0  0  0  0  0  0  0  0  0  0  0  0
  -18.1882   14.2213   21.1984 N   0  0  0  0  0  0  0  0  0  0  0  0
  -18.4231   12.9319   21.7836 C   0  0  0  0  0  0  0  0  0  0  0  0
  -17.8041   11.8745   21.4990 O   0  0  0  0  0  0  0  0  0  0  0  0
  -20.7126   14.5029   20.1451 H   0  0  0  0  0  0  0  0  0  0  0  0
  -21.0125   11.4679   21.6301 C   0  0  0  0  0  0  0  0  0  0  0  0
  -20.6741   11.8155   20.4695 O   0  0  0  0  0  0  0  0  0  0  0  0
  -20.4883   12.0813   22.7886 N   0  0  0  0  0  0  0  0  0  0  0  0
  -20.8487   11.7034   23.7153 H   0  0  0  0  0  0  0  0  0  0  0  0
  -21.0466    7.4766   20.0505 C   0  0  0  0  0  0  0  0  0  0  0  0
  -22.1527    8.1461   20.6735 N   0  0  0  0  0  0  0  0  0  0  0  0
  -22.1711    9.5538   20.5111 C   0  0  0  0  0  0  0  0  0  0  0  0
  -22.0076   10.3620   21.7467 C   0  0  0  0  0  0  0  0  0  0  0  0
  -21.7751    9.5501   23.0054 C   0  0  0  0  0  0  0  0  0  0  0  0
  -22.8815    8.5410   23.0068 C   0  0  0  0  0  0  0  0  0  0  0  0
  -22.5998    7.5824   21.8836 C   0  0  0  0  0  0  0  0  0  0  0  0
  -23.7735    6.6187   21.7451 C   0  0  0  0  0  0  0  0  0  0  0  0
  -23.9095    5.8697   23.0187 C   0  0  0  0  0  0  0  0  0  0  0  0
  -24.3450    4.6193   23.4050 C   0  0  0  0  0  0  0  0  0  0  0  0
  -24.2205    4.5204   24.7632 N   0  0  0  0  0  0  0  0  0  0  0  0
  -23.7192    5.6676   25.2566 C   0  0  0  0  0  0  0  0  0  0  0  0
  -23.3809    6.1592   26.4991 C   0  0  0  0  0  0  0  0  0  0  0  0
  -22.8670    7.4530   26.6272 C   0  0  0  0  0  0  0  0  0  0  0  0
  -22.6877    8.2664   25.5072 C   0  0  0  0  0  0  0  0  0  0  0  0
  -23.0283    7.7731   24.2518 C   0  0  0  0  0  0  0  0  0  0  0  0
  -23.5284    6.4976   24.1802 C   0  0  0  0  0  0  0  0  0  0  0  0
  -24.4653    3.6973   25.3672 H   0  0  0  0  0  0  0  0  0  0  0  0
  -17.4870   15.1240   19.0184 C   0  0  0  0  0  0  0  0  0  0  0  0
  -17.8249   13.8009   18.3872 C   0  0  0  0  0  0  0  0  0  0  0  0
  -19.0277   13.7543   17.6984 C   0  0  0  0  0  0  0  0  0  0  0  0
  -19.4319   12.5827   17.0805 C   0  0  0  0  0  0  0  0  0  0  0  0
  -18.6067   11.4680   17.1695 C   0  0  0  0  0  0  0  0  0  0  0  0
  -17.4111   11.5482   17.8654 C   0  0  0  0  0  0  0  0  0  0  0  0
  -16.9919   12.7091   18.4882 C   0  0  0  0  0  0  0  0  0  0  0  0
 22 23  1  0
 23 24  1  0
 24 25  1  0
 25 26  1  0
 26 27  1  0
 27 28  1  0
 28 29  1  0
 29 30  1  0
 30 31  2  0
 31 32  1  0
 32 33  1  0
 33 34  2  0
 34 35  1  0
 35 36  2  0
 36 37  1  0
 37 38  2  0
 25 18  1  0
 18 19  2  0
 18 20  1  0
  1 20  1  0
  1  2  1  0
  1  3  1  0
  3  4  1  0
  4  5  1  0
  4  6  1  0
  6  7  1  0
  7  8  1  0
  8  9  1  0
  9 10  1  0
 10 11  1  0
 11 12  2  0
 11 13  1  0
 13 40  1  0
 40 41  1  0
 41 42  2  0
 42 43  1  0
 43 44  2  0
 44 45  1  0
 45 46  2  0
 13 14  1  0
 14 15  1  0
 15 16  2  0
 28 23  1  0
 37 27  1  0
 38 30  1  0
 38 33  1  0
 15  1  1  0
 14  4  1  0
 10  6  1  0
 46 41  1  0
 32 39  1  0
 20 21  1  0
  5 17  1  0
M  END
> <minimizedAffinity>
-5.97991

> <CNNscore>
0.5243089199

> <CNNaffinity>
7.9218058586

> <CNN_VS>
4.1534733772

> <CNNaffinity_variance>
0.0040256735

$$$$



 46 53  0  0  0  0  0  0  0  0999 V2000
  -20.3287   11.8536   23.4961 C   0  0  0  0  0  0  0  0  0  0  0  0
  -19.6134   11.8656   24.8265 C   0  0  0  0  0  0  0  0  0  0  0  0
  -21.1876   12.9329   23.4897 O   0  0  0  0  0  0  0  0  0  0  0  0
  -20.6298   13.9683   22.7765 C   0  0  0  0  0  0  0  0  0  0  0  0
  -21.5595   14.3558   21.8110 O   0  0  0  0  0  0  0  0  0  0  0  0
  -20.4551   15.1241   23.7075 C   0  0  0  0  0  0  0  0  0  0  0  0
  -21.5334   16.1965   23.5292 C   0  0  0  0  0  0  0  0  0  0  0  0
  -20.8776   17.4209   24.1466 C   0  0  0  0  0  0  0  0  0  0  0  0
  -19.4024   17.1105   24.2781 C   0  0  0  0  0  0  0  0  0  0  0  0
  -19.2705   15.9223   23.4551 N   0  0  0  0  0  0  0  0  0  0  0  0
  -18.2413   15.5250   22.5568 C   0  0  0  0  0  0  0  0  0  0  0  0
  -17.0933   16.0412   22.5945 O   0  0  0  0  0  0  0  0  0  0  0  0
  -18.5383   14.4729   21.5519 C   0  0  0  0  0  0  0  0  0  0  0  0
  -19.3923   13.5163   22.1886 N   0  0  0  0  0  0  0  0  0  0  0  0
  -19.3372   12.1002   22.4164 C   0  0  0  0  0  0  0  0  0  0  0  0
  -18.5939   11.2887   21.8074 O   0  0  0  0  0  0  0  0  0  0  0  0
  -22.0406   13.5675   21.4503 H   0  0  0  0  0  0  0  0  0  0  0  0
  -21.8248   10.3556   22.1356 C   0  0  0  0  0  0  0  0  0  0  0  0
  -21.8673   11.1428   21.1553 O   0  0  0  0  0  0  0  0  0  0  0  0
  -21.0924   10.6430   23.3078 N   0  0  0  0  0  0  0  0  0  0  0  0
  -21.1307    9.9023   24.0703 H   0  0  0  0  0  0  0  0  0  0  0  0
  -20.7506    6.5158   20.5452 C   0  0  0  0  0  0  0  0  0  0  0  0
  -22.0723    6.9350   20.9158 N   0  0  0  0  0  0  0  0  0  0  0  0
  -22.3259    8.3214   20.7683 C   0  0  0  0  0  0  0  0  0  0  0  0
  -22.5899    9.0798   22.0179 C   0  0  0  0  0  0  0  0  0  0  0  0
  -22.4812    8.2600   23.2883 C   0  0  0  0  0  0  0  0  0  0  0  0
  -23.3468    7.0647   23.0348 C   0  0  0  0  0  0  0  0  0  0  0  0
  -22.6516    6.2353   21.9914 C   0  0  0  0  0  0  0  0  0  0  0  0
  -23.5604    5.0794   21.5871 C   0  0  0  0  0  0  0  0  0  0  0  0
  -23.8198    4.2522   22.7913 C   0  0  0  0  0  0  0  0  0  0  0  0
  -24.0791    2.9242   23.0587 C   0  0  0  0  0  0  0  0  0  0  0  0
  -24.2323    2.7788   24.4097 N   0  0  0  0  0  0  0  0  0  0  0  0
  -24.0788    3.9714   25.0137 C   0  0  0  0  0  0  0  0  0  0  0  0
  -24.1161    4.4512   26.3054 C   0  0  0  0  0  0  0  0  0  0  0  0
  -23.9004    5.8092   26.5574 C   0  0  0  0  0  0  0  0  0  0  0  0
  -23.6449    6.6996   25.5132 C   0  0  0  0  0  0  0  0  0  0  0  0
  -23.6067    6.2185   24.2085 C   0  0  0  0  0  0  0  0  0  0  0  0
  -23.8248    4.8779   24.0148 C   0  0  0  0  0  0  0  0  0  0  0  0
  -24.4379    1.8940   24.9360 H   0  0  0  0  0  0  0  0  0  0  0  0
  -19.1277   15.0604   20.2899 C   0  0  0  0  0  0  0  0  0  0  0  0
  -19.1238   13.9464   19.2789 C   0  0  0  0  0  0  0  0  0  0  0  0
  -17.8881   13.3699   19.0259 C   0  0  0  0  0  0  0  0  0  0  0  0
  -17.7756   12.3358   18.1116 C   0  0  0  0  0  0  0  0  0  0  0  0
  -18.9238   11.8975   17.4627 C   0  0  0  0  0  0  0  0  0  0  0  0
  -20.1432   12.4951   17.7384 C   0  0  0  0  0  0  0  0  0  0  0  0
  -20.2740   13.5283   18.6477 C   0  0  0  0  0  0  0  0  0  0  0  0
 22 23  1  0
 23 24  1  0
 24 25  1  0
 25 26  1  0
 26 27  1  0
 27 28  1  0
 28 29  1  0
 29 30  1  0
 30 31  2  0
 31 32  1  0
 32 33  1  0
 33 34  2  0
 34 35  1  0
 35 36  2  0
 36 37  1  0
 37 38  2  0
 25 18  1  0
 18 19  2  0
 18 20  1  0
  1 20  1  0
  1  2  1  0
  1  3  1  0
  3  4  1  0
  4  5  1  0
  4  6  1  0
  6  7  1  0
  7  8  1  0
  8  9  1  0
  9 10  1  0
 10 11  1  0
 11 12  2  0
 11 13  1  0
 13 40  1  0
 40 41  1  0
 41 42  2  0
 42 43  1  0
 43 44  2  0
 44 45  1  0
 45 46  2  0
 13 14  1  0
 14 15  1  0
 15 16  2  0
 28 23  1  0
 37 27  1  0
 38 30  1  0
 38 33  1  0
 15  1  1  0
 14  4  1  0
 10  6  1  0
 46 41  1  0
 32 39  1  0
 20 21  1  0
  5 17  1  0
M  END
> <minimizedAffinity>
-9.38606

> <CNNscore>
0.4956714511

> <CNNaffinity>
7.8515782356

> <CNN_VS>
3.8918032646

> <CNNaffinity_variance>
0.2104073018

$$$$



 46 53  0  0  0  0  0  0  0  0999 V2000
  -21.5533   11.1689   20.2604 C   0  0  0  0  0  0  0  0  0  0  0  0
  -22.7853   11.5200   19.4602 C   0  0  0  0  0  0  0  0  0  0  0  0
  -20.7044   10.4846   19.4154 O   0  0  0  0  0  0  0  0  0  0  0  0
  -19.7254   11.3321   18.9515 C   0  0  0  0  0  0  0  0  0  0  0  0
  -18.4948   10.7342   19.2248 O   0  0  0  0  0  0  0  0  0  0  0  0
  -19.8552   11.4118   17.4650 C   0  0  0  0  0  0  0  0  0  0  0  0
  -18.8146   10.5597   16.7331 C   0  0  0  0  0  0  0  0  0  0  0  0
  -18.7960   11.1889   15.3496 C   0  0  0  0  0  0  0  0  0  0  0  0
  -19.4854   12.5308   15.4673 C   0  0  0  0  0  0  0  0  0  0  0  0
  -19.5441   12.7136   16.9059 N   0  0  0  0  0  0  0  0  0  0  0  0
  -19.3534   13.8771   17.7022 C   0  0  0  0  0  0  0  0  0  0  0  0
  -19.4160   15.0346   17.2098 O   0  0  0  0  0  0  0  0  0  0  0  0
  -19.0738   13.7120   19.1511 C   0  0  0  0  0  0  0  0  0  0  0  0
  -19.8659   12.6099   19.6065 N   0  0  0  0  0  0  0  0  0  0  0  0
  -20.8505   12.4243   20.6343 C   0  0  0  0  0  0  0  0  0  0  0  0
  -21.0369   13.1875   21.6166 O   0  0  0  0  0  0  0  0  0  0  0  0
  -18.5189   10.2633   20.0969 H   0  0  0  0  0  0  0  0  0  0  0  0
  -21.0254   10.1816   22.5143 C   0  0  0  0  0  0  0  0  0  0  0  0
  -19.9221   10.7776   22.6138 O   0  0  0  0  0  0  0  0  0  0  0  0
  -21.8687   10.3294   21.3918 N   0  0  0  0  0  0  0  0  0  0  0  0
  -22.7766    9.7758   21.4193 H   0  0  0  0  0  0  0  0  0  0  0  0
  -24.2833   10.3919   25.3017 C   0  0  0  0  0  0  0  0  0  0  0  0
  -23.1547    9.5095   25.3890 N   0  0  0  0  0  0  0  0  0  0  0  0
  -21.9536   10.0141   24.8314 C   0  0  0  0  0  0  0  0  0  0  0  0
  -21.4238    9.2935   23.6454 C   0  0  0  0  0  0  0  0  0  0  0  0
  -22.2941    8.1510   23.1608 C   0  0  0  0  0  0  0  0  0  0  0  0
  -22.5454    7.3289   24.3869 C   0  0  0  0  0  0  0  0  0  0  0  0
  -23.4473    8.1370   25.2774 C   0  0  0  0  0  0  0  0  0  0  0  0
  -23.6172    7.4092   26.6066 C   0  0  0  0  0  0  0  0  0  0  0  0
  -24.2367    6.0886   26.3348 C   0  0  0  0  0  0  0  0  0  0  0  0
  -25.0718    5.2164   27.0013 C   0  0  0  0  0  0  0  0  0  0  0  0
  -25.2896    4.1307   26.1992 N   0  0  0  0  0  0  0  0  0  0  0  0
  -24.6203    4.2815   25.0415 C   0  0  0  0  0  0  0  0  0  0  0  0
  -24.4514    3.5564   23.8815 C   0  0  0  0  0  0  0  0  0  0  0  0
  -23.6476    4.0546   22.8518 C   0  0  0  0  0  0  0  0  0  0  0  0
  -23.0050    5.2873   22.9776 C   0  0  0  0  0  0  0  0  0  0  0  0
  -23.1735    6.0214   24.1472 C   0  0  0  0  0  0  0  0  0  0  0  0
  -23.9722    5.4884   25.1271 C   0  0  0  0  0  0  0  0  0  0  0  0
  -25.8793    3.2887   26.4127 H   0  0  0  0  0  0  0  0  0  0  0  0
  -17.5953   13.5409   19.4158 C   0  0  0  0  0  0  0  0  0  0  0  0
  -17.2444   14.5671   20.4585 C   0  0  0  0  0  0  0  0  0  0  0  0
  -18.0079   14.5321   21.6157 C   0  0  0  0  0  0  0  0  0  0  0  0
  -17.7655   15.4343   22.6380 C   0  0  0  0  0  0  0  0  0  0  0  0
  -16.7466   16.3649   22.4725 C   0  0  0  0  0  0  0  0  0  0  0  0
  -16.0023   16.3729   21.3038 C   0  0  0  0  0  0  0  0  0  0  0  0
  -16.2303   15.4800   20.2732 C   0  0  0  0  0  0  0  0  0  0  0  0
 22 23  1  0
 23 24  1  0
 24 25  1  0
 25 26  1  0
 26 27  1  0
 27 28  1  0
 28 29  1  0
 29 30  1  0
 30 31  2  0
 31 32  1  0
 32 33  1  0
 33 34  2  0
 34 35  1  0
 35 36  2  0
 36 37  1  0
 37 38  2  0
 25 18  1  0
 18 19  2  0
 18 20  1  0
  1 20  1  0
  1  2  1  0
  1  3  1  0
  3  4  1  0
  4  5  1  0
  4  6  1  0
  6  7  1  0
  7  8  1  0
  8  9  1  0
  9 10  1  0
 10 11  1  0
 11 12  2  0
 11 13  1  0
 13 40  1  0
 40 41  1  0
 41 42  2  0
 42 43  1  0
 43 44  2  0
 44 45  1  0
 45 46  2  0
 13 14  1  0
 14 15  1  0
 15 16  2  0
 28 23  1  0
 37 27  1  0
 38 30  1  0
 38 33  1  0
 15  1  1  0
 14  4  1  0
 10  6  1  0
 46 41  1  0
 32 39  1  0
 20 21  1  0
  5 17  1  0
M  END
> <minimizedAffinity>
-7.18006

> <CNNscore>
0.4326476455

> <CNNaffinity>
7.8655600548

> <CNN_VS>
3.4030160904

> <CNNaffinity_variance>
0.0390952341

$$$$



 46 53  0  0  0  0  0  0  0  0999 V2000
  -21.0924   12.2371   24.2161 C   0  0  0  0  0  0  0  0  0  0  0  0
  -22.1948   13.1582   23.7495 C   0  0  0  0  0  0  0  0  0  0  0  0
  -21.2536   12.0708   25.5759 O   0  0  0  0  0  0  0  0  0  0  0  0
  -21.8760   10.8705   25.8283 C   0  0  0  0  0  0  0  0  0  0  0  0
  -21.0795   10.1726   26.7367 O   0  0  0  0  0  0  0  0  0  0  0  0
  -23.1721   11.1615   26.5128 C   0  0  0  0  0  0  0  0  0  0  0  0
  -23.1119   10.9180   28.0234 C   0  0  0  0  0  0  0  0  0  0  0  0
  -24.5799   10.7611   28.3848 C   0  0  0  0  0  0  0  0  0  0  0  0
  -25.3304   10.5383   27.0898 C   0  0  0  0  0  0  0  0  0  0  0  0
  -24.2509   10.2580   26.1610 N   0  0  0  0  0  0  0  0  0  0  0  0
  -24.1637    9.3194   25.0954 C   0  0  0  0  0  0  0  0  0  0  0  0
  -25.1900    8.7896   24.5934 O   0  0  0  0  0  0  0  0  0  0  0  0
  -22.8225    8.9616   24.5680 C   0  0  0  0  0  0  0  0  0  0  0  0
  -22.0346   10.1567   24.5846 N   0  0  0  0  0  0  0  0  0  0  0  0
  -21.2948   10.8980   23.6031 C   0  0  0  0  0  0  0  0  0  0  0  0
  -20.9231   10.4626   22.4831 O   0  0  0  0  0  0  0  0  0  0  0  0
  -20.1178   10.3237   26.5492 H   0  0  0  0  0  0  0  0  0  0  0  0
  -19.5740   14.0567   23.3694 C   0  0  0  0  0  0  0  0  0  0  0  0
  -20.5226   14.8029   23.0147 O   0  0  0  0  0  0  0  0  0  0  0  0
  -19.7844   12.7925   23.9615 N   0  0  0  0  0  0  0  0  0  0  0  0
  -18.9060   12.2509   24.2197 H   0  0  0  0  0  0  0  0  0  0  0  0
  -18.0368   17.1004   20.7617 C   0  0  0  0  0  0  0  0  0  0  0  0
  -17.2556   16.1478   21.4980 N   0  0  0  0  0  0  0  0  0  0  0  0
  -17.8880   14.9000   21.7248 C   0  0  0  0  0  0  0  0  0  0  0  0
  -18.1885   14.5608   23.1395 C   0  0  0  0  0  0  0  0  0  0  0  0
  -17.8299   15.6437   24.1377 C   0  0  0  0  0  0  0  0  0  0  0  0
  -16.4077   15.9873   23.8189 C   0  0  0  0  0  0  0  0  0  0  0  0
  -16.4153   16.6889   22.4894 C   0  0  0  0  0  0  0  0  0  0  0  0
  -14.9765   16.9310   22.0459 C   0  0  0  0  0  0  0  0  0  0  0  0
  -14.3183   17.7907   23.0604 C   0  0  0  0  0  0  0  0  0  0  0  0
  -13.3186   18.7408   23.0733 C   0  0  0  0  0  0  0  0  0  0  0  0
  -13.1638   19.1859   24.3569 N   0  0  0  0  0  0  0  0  0  0  0  0
  -14.0328   18.5504   25.1643 C   0  0  0  0  0  0  0  0  0  0  0  0
  -14.3463   18.5654   26.5065 C   0  0  0  0  0  0  0  0  0  0  0  0
  -15.3506   17.7293   27.0032 C   0  0  0  0  0  0  0  0  0  0  0  0
  -16.0506   16.8691   26.1555 C   0  0  0  0  0  0  0  0  0  0  0  0
  -15.7363   16.8517   24.8004 C   0  0  0  0  0  0  0  0  0  0  0  0
  -14.7431   17.6912   24.3636 C   0  0  0  0  0  0  0  0  0  0  0  0
  -12.4858   19.9088   24.7032 H   0  0  0  0  0  0  0  0  0  0  0  0
  -22.2051    7.8223   25.3464 C   0  0  0  0  0  0  0  0  0  0  0  0
  -22.8919    6.5750   24.8611 C   0  0  0  0  0  0  0  0  0  0  0  0
  -22.6854    6.2565   23.5271 C   0  0  0  0  0  0  0  0  0  0  0  0
  -23.2731    5.1275   22.9812 C   0  0  0  0  0  0  0  0  0  0  0  0
  -24.0663    4.3321   23.7995 C   0  0  0  0  0  0  0  0  0  0  0  0
  -24.2523    4.6786   25.1282 C   0  0  0  0  0  0  0  0  0  0  0  0
  -23.6737    5.8016   25.6898 C   0  0  0  0  0  0  0  0  0  0  0  0
 22 23  1  0
 23 24  1  0
 24 25  1  0
 25 26  1  0
 26 27  1  0
 27 28  1  0
 28 29  1  0
 29 30  1  0
 30 31  2  0
 31 32  1  0
 32 33  1  0
 33 34  2  0
 34 35  1  0
 35 36  2  0
 36 37  1  0
 37 38  2  0
 25 18  1  0
 18 19  2  0
 18 20  1  0
  1 20  1  0
  1  2  1  0
  1  3  1  0
  3  4  1  0
  4  5  1  0
  4  6  1  0
  6  7  1  0
  7  8  1  0
  8  9  1  0
  9 10  1  0
 10 11  1  0
 11 12  2  0
 11 13  1  0
 13 40  1  0
 40 41  1  0
 41 42  2  0
 42 43  1  0
 43 44  2  0
 44 45  1  0
 45 46  2  0
 13 14  1  0
 14 15  1  0
 15 16  2  0
 28 23  1  0
 37 27  1  0
 38 30  1  0
 38 33  1  0
 15  1  1  0
 14  4  1  0
 10  6  1  0
 46 41  1  0
 32 39  1  0
 20 21  1  0
  5 17  1  0
M  END
> <minimizedAffinity>
-10.27166

> <CNNscore>
0.3881104589

> <CNNaffinity>
6.9453301430

> <CNN_VS>
2.6955552101

> <CNNaffinity_variance>
0.4900347888

$$$$



 46 53  0  0  0  0  0  0  0  0999 V2000
  -20.8939    7.8748   20.9169 C   0  0  0  0  0  0  0  0  0  0  0  0
  -19.7924    6.9051   21.2748 C   0  0  0  0  0  0  0  0  0  0  0  0
  -22.0026    7.1229   20.5880 O   0  0  0  0  0  0  0  0  0  0  0  0
  -22.8717    7.0831   21.6533 C   0  0  0  0  0  0  0  0  0  0  0  0
  -24.1191    7.4999   21.1874 O   0  0  0  0  0  0  0  0  0  0  0  0
  -23.0140    5.6567   22.0753 C   0  0  0  0  0  0  0  0  0  0  0  0
  -24.3180    5.0213   21.5849 C   0  0  0  0  0  0  0  0  0  0  0  0
  -24.4786    3.8416   22.5298 C   0  0  0  0  0  0  0  0  0  0  0  0
  -23.5361    4.0758   23.6902 C   0  0  0  0  0  0  0  0  0  0  0  0
  -23.1713    5.4683   23.5050 N   0  0  0  0  0  0  0  0  0  0  0  0
  -22.9815    6.5121   24.4530 C   0  0  0  0  0  0  0  0  0  0  0  0
  -22.7937    6.2714   25.6748 O   0  0  0  0  0  0  0  0  0  0  0  0
  -23.0069    7.9192   23.9795 C   0  0  0  0  0  0  0  0  0  0  0  0
  -22.3679    7.9406   22.6985 N   0  0  0  0  0  0  0  0  0  0  0  0
  -21.2599    8.6535   22.1291 C   0  0  0  0  0  0  0  0  0  0  0  0
  -20.7479    9.7040   22.5942 O   0  0  0  0  0  0  0  0  0  0  0  0
  -24.0200    8.2252   20.5188 H   0  0  0  0  0  0  0  0  0  0  0  0
  -19.8432    9.9275   19.9091 C   0  0  0  0  0  0  0  0  0  0  0  0
  -19.4826   10.3946   21.0200 O   0  0  0  0  0  0  0  0  0  0  0  0
  -20.5354    8.7029   19.7900 N   0  0  0  0  0  0  0  0  0  0  0  0
  -20.7886    8.4092   18.7994 H   0  0  0  0  0  0  0  0  0  0  0  0
  -22.0546   12.9065   17.7499 C   0  0  0  0  0  0  0  0  0  0  0  0
  -20.8408   12.2768   17.3139 N   0  0  0  0  0  0  0  0  0  0  0  0
  -20.6540   10.9497   17.7746 C   0  0  0  0  0  0  0  0  0  0  0  0
  -19.5087   10.7263   18.6938 C   0  0  0  0  0  0  0  0  0  0  0  0
  -18.7400   11.9802   19.0603 C   0  0  0  0  0  0  0  0  0  0  0  0
  -18.4271   12.6227   17.7444 C   0  0  0  0  0  0  0  0  0  0  0  0
  -19.7275   13.1287   17.1851 C   0  0  0  0  0  0  0  0  0  0  0  0
  -19.4898   13.6622   15.7765 C   0  0  0  0  0  0  0  0  0  0  0  0
  -18.5155   14.7779   15.8628 C   0  0  0  0  0  0  0  0  0  0  0  0
  -18.2574   15.9399   15.1661 C   0  0  0  0  0  0  0  0  0  0  0  0
  -17.1927   16.5662   15.7525 N   0  0  0  0  0  0  0  0  0  0  0  0
  -16.7626   15.8415   16.8015 C   0  0  0  0  0  0  0  0  0  0  0  0
  -15.7672   15.9460   17.7493 C   0  0  0  0  0  0  0  0  0  0  0  0
  -15.6191   14.9561   18.7253 C   0  0  0  0  0  0  0  0  0  0  0  0
  -16.4704   13.8503   18.7588 C   0  0  0  0  0  0  0  0  0  0  0  0
  -17.4759   13.7420   17.8035 C   0  0  0  0  0  0  0  0  0  0  0  0
  -17.5789   14.7399   16.8677 C   0  0  0  0  0  0  0  0  0  0  0  0
  -16.7477   17.4720   15.4629 H   0  0  0  0  0  0  0  0  0  0  0  0
  -24.4130    8.4737   23.9603 C   0  0  0  0  0  0  0  0  0  0  0  0
  -24.5641    9.2514   25.2392 C   0  0  0  0  0  0  0  0  0  0  0  0
  -23.5673   10.1803   25.4981 C   0  0  0  0  0  0  0  0  0  0  0  0
  -23.6128   10.9487   26.6494 C   0  0  0  0  0  0  0  0  0  0  0  0
  -24.6741   10.7641   27.5275 C   0  0  0  0  0  0  0  0  0  0  0  0
  -25.6537    9.8275   27.2390 C   0  0  0  0  0  0  0  0  0  0  0  0
  -25.6244    9.0520   26.0949 C   0  0  0  0  0  0  0  0  0  0  0  0
 22 23  1  0
 23 24  1  0
 24 25  1  0
 25 26  1  0
 26 27  1  0
 27 28  1  0
 28 29  1  0
 29 30  1  0
 30 31  2  0
 31 32  1  0
 32 33  1  0
 33 34  2  0
 34 35  1  0
 35 36  2  0
 36 37  1  0
 37 38  2  0
 25 18  1  0
 18 19  2  0
 18 20  1  0
  1 20  1  0
  1  2  1  0
  1  3  1  0
  3  4  1  0
  4  5  1  0
  4  6  1  0
  6  7  1  0
  7  8  1  0
  8  9  1  0
  9 10  1  0
 10 11  1  0
 11 12  2  0
 11 13  1  0
 13 40  1  0
 40 41  1  0
 41 42  2  0
 42 43  1  0
 43 44  2  0
 44 45  1  0
 45 46  2  0
 13 14  1  0
 14 15  1  0
 15 16  2  0
 28 23  1  0
 37 27  1  0
 38 30  1  0
 38 33  1  0
 15  1  1  0
 14  4  1  0
 10  6  1  0
 46 41  1  0
 32 39  1  0
 20 21  1  0
  5 17  1  0
M  END
> <minimizedAffinity>
1.63199

> <CNNscore>
0.3798916936

> <CNNaffinity>
7.6966147423

> <CNN_VS>
2.9238801003

> <CNNaffinity_variance>
0.0247247014

$$$$



 46 53  0  0  0  0  0  0  0  0999 V2000
  -21.8152   10.8884   23.8648 C   0  0  0  0  0  0  0  0  0  0  0  0
  -22.7913   11.9613   24.2864 C   0  0  0  0  0  0  0  0  0  0  0  0
  -21.0600   10.5709   24.9745 O   0  0  0  0  0  0  0  0  0  0  0  0
  -21.5348    9.4134   25.5460 C   0  0  0  0  0  0  0  0  0  0  0  0
  -20.4568    8.5354   25.6632 O   0  0  0  0  0  0  0  0  0  0  0  0
  -21.9888    9.7396   26.9319 C   0  0  0  0  0  0  0  0  0  0  0  0
  -20.9832    9.3059   28.0021 C   0  0  0  0  0  0  0  0  0  0  0  0
  -21.8461    9.2463   29.2519 C   0  0  0  0  0  0  0  0  0  0  0  0
  -23.2878    9.2585   28.7922 C   0  0  0  0  0  0  0  0  0  0  0  0
  -23.1526    8.9938   27.3716 N   0  0  0  0  0  0  0  0  0  0  0  0
  -23.9378    8.1906   26.4983 C   0  0  0  0  0  0  0  0  0  0  0  0
  -25.1048    7.8275   26.8021 O   0  0  0  0  0  0  0  0  0  0  0  0
  -23.3571    7.7747   25.1965 C   0  0  0  0  0  0  0  0  0  0  0  0
  -22.5835    8.8779   24.7126 N   0  0  0  0  0  0  0  0  0  0  0  0
  -22.5754    9.6612   23.5099 C   0  0  0  0  0  0  0  0  0  0  0  0
  -23.1102    9.3346   22.4193 O   0  0  0  0  0  0  0  0  0  0  0  0
  -19.8515    8.6162   24.8821 H   0  0  0  0  0  0  0  0  0  0  0  0
  -20.6088   10.5688   21.6794 C   0  0  0  0  0  0  0  0  0  0  0  0
  -21.0613    9.4089   21.4994 O   0  0  0  0  0  0  0  0  0  0  0  0
  -20.9378   11.3437   22.8127 N   0  0  0  0  0  0  0  0  0  0  0  0
  -20.4948   12.3099   22.8567 H   0  0  0  0  0  0  0  0  0  0  0  0
  -21.3842   12.4771   17.9132 C   0  0  0  0  0  0  0  0  0  0  0  0
  -20.1078   12.0107   18.3749 N   0  0  0  0  0  0  0  0  0  0  0  0
  -20.1555   10.8893   19.2401 C   0  0  0  0  0  0  0  0  0  0  0  0
  -19.6930   11.1122   20.6340 C   0  0  0  0  0  0  0  0  0  0  0  0
  -19.2966   12.5415   20.9462 C   0  0  0  0  0  0  0  0  0  0  0  0
  -18.3380   12.9083   19.8558 C   0  0  0  0  0  0  0  0  0  0  0  0
  -19.1375   13.0084   18.5868 C   0  0  0  0  0  0  0  0  0  0  0  0
  -18.1871   13.2352   17.4160 C   0  0  0  0  0  0  0  0  0  0  0  0
  -17.4604   14.5074   17.6500 C   0  0  0  0  0  0  0  0  0  0  0  0
  -16.9055   15.5029   16.8732 C   0  0  0  0  0  0  0  0  0  0  0  0
  -16.3591   16.4426   17.7027 N   0  0  0  0  0  0  0  0  0  0  0  0
  -16.5474   16.0792   18.9846 C   0  0  0  0  0  0  0  0  0  0  0  0
  -16.2378   16.5922   20.2260 C   0  0  0  0  0  0  0  0  0  0  0  0
  -16.6122   15.9046   21.3842 C   0  0  0  0  0  0  0  0  0  0  0  0
  -17.3020   14.6935   21.3065 C   0  0  0  0  0  0  0  0  0  0  0  0
  -17.6158   14.1732   20.0551 C   0  0  0  0  0  0  0  0  0  0  0  0
  -17.2260   14.8866   18.9500 C   0  0  0  0  0  0  0  0  0  0  0  0
  -15.8615   17.3247   17.4260 H   0  0  0  0  0  0  0  0  0  0  0  0
  -22.5644    6.4940   25.3255 C   0  0  0  0  0  0  0  0  0  0  0  0
  -22.9635    5.6451   24.1494 C   0  0  0  0  0  0  0  0  0  0  0  0
  -22.3236    5.9368   22.9540 C   0  0  0  0  0  0  0  0  0  0  0  0
  -22.6192    5.2133   21.8107 C   0  0  0  0  0  0  0  0  0  0  0  0
  -23.5644    4.1980   21.8952 C   0  0  0  0  0  0  0  0  0  0  0  0
  -24.1855    3.9320   23.1050 C   0  0  0  0  0  0  0  0  0  0  0  0
  -23.9030    4.6439   24.2560 C   0  0  0  0  0  0  0  0  0  0  0  0
 22 23  1  0
 23 24  1  0
 24 25  1  0
 25 26  1  0
 26 27  1  0
 27 28  1  0
 28 29  1  0
 29 30  1  0
 30 31  2  0
 31 32  1  0
 32 33  1  0
 33 34  2  0
 34 35  1  0
 35 36  2  0
 36 37  1  0
 37 38  2  0
 25 18  1  0
 18 19  2  0
 18 20  1  0
  1 20  1  0
  1  2  1  0
  1  3  1  0
  3  4  1  0
  4  5  1  0
  4  6  1  0
  6  7  1  0
  7  8  1  0
  8  9  1  0
  9 10  1  0
 10 11  1  0
 11 12  2  0
 11 13  1  0
 13 40  1  0
 40 41  1  0
 41 42  2  0
 42 43  1  0
 43 44  2  0
 44 45  1  0
 45 46  2  0
 13 14  1  0
 14 15  1  0
 15 16  2  0
 28 23  1  0
 37 27  1  0
 38 30  1  0
 38 33  1  0
 15  1  1  0
 14  4  1  0
 10  6  1  0
 46 41  1  0
 32 39  1  0
 20 21  1  0
  5 17  1  0
M  END
> <minimizedAffinity>
-7.42946

> <CNNscore>
0.3249579668

> <CNNaffinity>
7.6878604889

> <CNN_VS>
2.4982314110

> <CNNaffinity_variance>
0.2500817478

$$$$
