pdb_files/EP5_extracted.pdb
     RDKit          3D

 56 59  0  0  0  0  0  0  0  0999 V2000
   11.0781    1.2554    0.7261 N   0  0  0  0  0  0  0  0  0  0  0  0
    9.9745    1.0170    0.5728 C   0  0  0  0  0  0  0  0  0  0  0  0
    8.5820    0.7321    0.3747 C   0  0  0  0  0  0  0  0  0  0  0  0
    8.0696   -0.5480    0.3339 C   0  0  0  0  0  0  0  0  0  0  0  0
    8.7477   -1.3843    0.4562 H   0  0  0  0  0  0  0  0  0  0  0  0
    6.7075   -0.7796    0.1392 C   0  0  0  0  0  0  0  0  0  0  0  0
    6.4046   -1.8006    0.1211 H   0  0  0  0  0  0  0  0  0  0  0  0
    7.7186    1.7731    0.2190 C   0  0  0  0  0  0  0  0  0  0  0  0
    8.0930    2.8082    0.2461 H   0  0  0  0  0  0  0  0  0  0  0  0
    6.3668    1.5406    0.0259 C   0  0  0  0  0  0  0  0  0  0  0  0
    5.7475    2.4159   -0.0884 H   0  0  0  0  0  0  0  0  0  0  0  0
    5.8219    0.2746   -0.0201 C   0  0  0  0  0  0  0  0  0  0  0  0
    4.4366    0.0362   -0.2148 N   0  0  0  0  0  0  0  0  0  0  0  0
    3.9615   -1.3336   -0.1470 C   0  0  1  0  0  0  0  0  0  0  0  0
    4.2310   -1.9229   -1.0229 H   0  0  0  0  0  0  0  0  0  0  0  0
    4.4815   -1.7792    0.7528 H   0  0  0  0  0  0  0  0  0  0  0  0
    2.5013   -1.4667    0.1183 C   0  0  2  0  0  0  0  0  0  0  0  0
    2.2764   -1.6467    1.2054 H   0  0  0  0  0  0  0  0  0  0  0  0
    2.1234   -2.3850   -0.3834 H   0  0  0  0  0  0  0  0  0  0  0  0
    3.5312    1.1391   -0.4765 C   0  0  1  0  0  0  0  0  0  0  0  0
    3.1091    1.4250    0.5179 H   0  0  0  0  0  0  0  0  0  0  0  0
    3.9930    1.9848   -1.0031 H   0  0  0  0  0  0  0  0  0  0  0  0
    2.4136    0.5280   -1.3361 C   0  0  2  0  0  0  0  0  0  0  0  0
    2.9441   -0.0844   -2.1098 H   0  0  0  0  0  0  0  0  0  0  0  0
    1.7572    1.2934   -1.7485 H   0  0  0  0  0  0  0  0  0  0  0  0
    1.7212   -0.3656   -0.4013 N   0  0  0  0  0  0  0  0  0  0  0  0
    0.3719   -0.1612   -0.0297 C   0  0  0  0  0  0  0  0  0  0  0  0
   -0.2277    0.8213   -0.5351 O   0  0  0  0  0  0  0  0  0  0  0  0
   -0.2446   -1.1111    0.9246 C   0  0  2  0  0  0  0  0  0  0  0  0
    0.3080   -1.0512    1.9073 H   0  0  0  0  0  0  0  0  0  0  0  0
   -0.1612   -2.1612    0.5747 H   0  0  0  0  0  0  0  0  0  0  0  0
   -1.5869   -0.8629    1.2015 O   0  0  0  0  0  0  0  0  0  0  0  0
   -2.6093   -0.8821    0.2767 C   0  0  0  0  0  0  0  0  0  0  0  0
   -3.9060   -0.6004    0.7115 C   0  0  0  0  0  0  0  0  0  0  0  0
   -4.0547   -0.3775    1.7571 H   0  0  0  0  0  0  0  0  0  0  0  0
   -4.9716   -0.6069   -0.1743 C   0  0  0  0  0  0  0  0  0  0  0  0
   -4.7909   -0.8924   -1.5212 C   0  0  0  0  0  0  0  0  0  0  0  0
   -3.5139   -1.1717   -1.9592 C   0  0  0  0  0  0  0  0  0  0  0  0
   -3.3446   -1.3959   -2.9930 H   0  0  0  0  0  0  0  0  0  0  0  0
   -2.4469   -1.1631   -1.0608 C   0  0  0  0  0  0  0  0  0  0  0  0
   -1.4910   -1.3920   -1.4573 H   0  0  0  0  0  0  0  0  0  0  0  0
   -6.3213   -0.3743   -0.0407 C   0  0  0  0  0  0  0  0  0  0  0  0
   -6.9209   -0.5185   -1.2745 C   0  0  0  0  0  0  0  0  0  0  0  0
   -7.9523   -0.4090   -1.5282 H   0  0  0  0  0  0  0  0  0  0  0  0
   -5.9686   -0.8360   -2.1695 N   0  0  0  0  0  0  0  0  0  0  0  0
   -6.0565   -1.0186   -3.1948 H   0  0  0  0  0  0  0  0  0  0  0  0
   -7.0120   -0.0242    1.2291 C   0  0  1  0  0  0  0  0  0  0  0  0
   -8.1066   -0.1930    1.1601 H   0  0  0  0  0  0  0  0  0  0  0  0
   -6.5984   -0.6536    2.0270 H   0  0  0  0  0  0  0  0  0  0  0  0
   -6.7509    1.4242    1.5858 C   0  0  1  0  0  0  0  0  0  0  0  0
   -7.3193    1.7052    2.4767 H   0  0  0  0  0  0  0  0  0  0  0  0
   -5.6664    1.5924    1.6441 H   0  0  0  0  0  0  0  0  0  0  0  0
   -7.2784    2.2632    0.4616 N   0  0  1  0  0  0  0  0  0  0  0  0
   -6.5578    2.2387   -0.3413 H   0  0  0  0  0  0  0  0  0  0  0  0
   -8.1916    1.8286    0.1105 H   0  0  0  0  0  0  0  0  0  0  0  0
   -7.4224    3.2563    0.8028 H   0  0  0  0  0  0  0  0  0  0  0  0
  1  2  3  0
  2  3  1  0
  3  4  2  0
  3  8  1  0
  4  5  1  0
  4  6  1  0
  6  7  1  0
  6 12  2  0
  8  9  1  0
  8 10  2  0
 10 11  1  0
 10 12  1  0
 12 13  1  0
 13 14  1  0
 13 20  1  0
 14 15  1  6
 14 16  1  0
 14 17  1  0
 17 18  1  1
 17 19  1  0
 17 26  1  0
 20 21  1  1
 20 22  1  0
 20 23  1  0
 23 24  1  6
 23 25  1  0
 23 26  1  0
 26 27  1  0
 27 28  2  0
 27 29  1  0
 29 30  1  1
 29 31  1  0
 29 32  1  0
 32 33  1  0
 33 34  2  0
 33 40  1  0
 34 35  1  0
 34 36  1  0
 36 37  2  0
 36 42  1  0
 37 38  1  0
 37 45  1  0
 38 39  1  0
 38 40  2  0
 40 41  1  0
 42 43  2  0
 42 47  1  0
 43 44  1  0
 43 45  1  0
 45 46  1  0
 47 48  1  6
 47 49  1  0
 47 50  1  0
 50 51  1  1
 50 52  1  0
 50 53  1  0
 53 54  1  6
 53 55  1  0
 53 56  1  0
M  CHG  1  53   1
M  END
