


 34 37  0  0  0  0  0  0  0  0999 V2000
  -19.7771   12.7990   19.7351 O   0  0  0  0  0  0  0  0  0  0  0  0
  -17.8189   14.3313   15.4192 C   0  0  0  0  0  0  0  0  0  0  0  0
  -17.6949   13.5865   14.2422 C   0  0  0  0  0  0  0  0  0  0  0  0
  -18.2084   12.3505   14.4801 N   0  0  0  0  0  0  0  0  0  0  0  0
  -18.6367   12.3167   15.7492 C   0  0  0  0  0  0  0  0  0  0  0  0
  -19.2363   11.2708   16.4521 C   0  0  0  0  0  0  0  0  0  0  0  0
  -19.5944   11.4791   17.7649 C   0  0  0  0  0  0  0  0  0  0  0  0
  -19.3788   12.6812   18.3979 C   0  0  0  0  0  0  0  0  0  0  0  0
  -18.7865   13.7164   17.7062 C   0  0  0  0  0  0  0  0  0  0  0  0
  -18.4196   13.5180   16.3773 C   0  0  0  0  0  0  0  0  0  0  0  0
  -18.2305   11.6027   13.7434 H   0  0  0  0  0  0  0  0  0  0  0  0
  -17.3934   15.7339   15.6302 C   0  0  0  0  0  0  0  0  0  0  0  0
  -18.2884   17.8768   14.9575 N   0  0  0  0  0  0  0  0  0  0  0  0
  -17.8067   16.6101   14.4572 C   0  0  0  0  0  0  0  0  0  0  0  0
  -19.0040   17.7099   15.6849 H   0  0  0  0  0  0  0  0  0  0  0  0
  -18.6623   18.4237   14.1270 H   0  0  0  0  0  0  0  0  0  0  0  0
  -17.4550   18.4146   15.3068 H   0  0  0  0  0  0  0  0  0  0  0  0
  -18.8421   13.0801   20.7144 C   0  0  0  0  0  0  0  0  0  0  0  0
  -19.2422   12.6601   22.0581 C   0  0  0  0  0  0  0  0  0  0  0  0
  -18.8859   13.4975   22.9910 O   0  0  0  0  0  0  0  0  0  0  0  0
  -19.9310   11.5353   22.4865 N   0  0  0  0  0  0  0  0  0  0  0  0
  -20.4928   10.4721   21.6827 C   0  0  0  0  0  0  0  0  0  0  0  0
  -21.7966    9.9667   22.3206 C   0  0  0  0  0  0  0  0  0  0  0  0
  -21.4654    9.4492   23.6350 N   0  0  0  0  0  0  0  0  0  0  0  0
  -20.2114    9.8909   24.2120 C   0  0  0  0  0  0  0  0  0  0  0  0
  -20.1363   11.3785   23.9451 C   0  0  0  0  0  0  0  0  0  0  0  0
  -22.3666    8.5619   24.2742 C   0  0  0  0  0  0  0  0  0  0  0  0
  -22.1381    7.2055   24.1291 C   0  0  0  0  0  0  0  0  0  0  0  0
  -22.9904    6.2725   24.7357 C   0  0  0  0  0  0  0  0  0  0  0  0
  -24.0729    6.6890   25.4885 C   0  0  0  0  0  0  0  0  0  0  0  0
  -24.2984    8.0436   25.6315 C   0  0  0  0  0  0  0  0  0  0  0  0
  -23.4460    8.9716   25.0250 C   0  0  0  0  0  0  0  0  0  0  0  0
  -24.9561    5.7186   26.1167 C   0  0  0  0  0  0  0  0  0  0  0  0
  -25.6543    4.9331   26.6126 N   0  0  0  0  0  0  0  0  0  0  0  0
 13 14  1  0
 14 12  1  0
 12  2  1  0
  2  3  2  0
  3  4  1  0
  4  5  1  0
  5  6  2  0
  6  7  1  0
  7  8  2  0
  8  1  1  0
  1 18  1  0
 18 19  1  0
 19 20  2  0
 19 21  1  0
 21 22  1  0
 22 23  1  0
 23 24  1  0
 24 25  1  0
 25 26  1  0
 24 27  1  0
 27 28  2  0
 28 29  1  0
 29 30  2  0
 30 31  1  0
 31 32  2  0
 30 33  1  0
 33 34  3  0
  8  9  1  0
  9 10  2  0
 10  2  1  0
 10  5  1  0
 26 21  1  0
 32 27  1  0
 13 15  1  0
 13 16  1  0
 13 17  1  0
  4 11  1  0
M  CHG 1  13   1
M  END
> <minimizedAffinity>
-9.82293

> <CNNscore>
0.4051906765

> <CNNaffinity>
6.2595167160

> <CNN_VS>
2.5362977982

> <CNNaffinity_variance>
0.0176186766

$$$$



 34 37  0  0  0  0  0  0  0  0999 V2000
  -20.4846   11.7446   25.6370 O   0  0  0  0  0  0  0  0  0  0  0  0
  -19.3675   16.5394   26.3930 C   0  0  0  0  0  0  0  0  0  0  0  0
  -19.2107   17.1805   27.6257 C   0  0  0  0  0  0  0  0  0  0  0  0
  -19.4191   16.2565   28.6008 N   0  0  0  0  0  0  0  0  0  0  0  0
  -19.6950   15.0858   28.0105 C   0  0  0  0  0  0  0  0  0  0  0  0
  -19.9784   13.8485   28.5904 C   0  0  0  0  0  0  0  0  0  0  0  0
  -20.2322   12.7765   27.7650 C   0  0  0  0  0  0  0  0  0  0  0  0
  -20.2143   12.8908   26.3943 C   0  0  0  0  0  0  0  0  0  0  0  0
  -19.9348   14.1119   25.8183 C   0  0  0  0  0  0  0  0  0  0  0  0
  -19.6764   15.2043   26.6429 C   0  0  0  0  0  0  0  0  0  0  0  0
  -19.3565   16.4962   29.6211 H   0  0  0  0  0  0  0  0  0  0  0  0
  -19.2343   17.1520   25.0514 C   0  0  0  0  0  0  0  0  0  0  0  0
  -20.6044   18.0941   23.2961 N   0  0  0  0  0  0  0  0  0  0  0  0
  -20.4386   18.0240   24.7295 C   0  0  0  0  0  0  0  0  0  0  0  0
  -19.7073   18.3645   22.8587 H   0  0  0  0  0  0  0  0  0  0  0  0
  -21.3852   18.7876   23.1012 H   0  0  0  0  0  0  0  0  0  0  0  0
  -20.9610   17.1586   22.9745 H   0  0  0  0  0  0  0  0  0  0  0  0
  -21.4992   11.7582   24.6975 C   0  0  0  0  0  0  0  0  0  0  0  0
  -21.1211   11.1874   23.4039 C   0  0  0  0  0  0  0  0  0  0  0  0
  -21.6243   10.0040   23.1920 O   0  0  0  0  0  0  0  0  0  0  0  0
  -20.3305   11.6991   22.3860 N   0  0  0  0  0  0  0  0  0  0  0  0
  -19.6907   12.9945   22.3174 C   0  0  0  0  0  0  0  0  0  0  0  0
  -19.6860   13.4998   20.8658 C   0  0  0  0  0  0  0  0  0  0  0  0
  -18.9262   12.5483   20.0768 N   0  0  0  0  0  0  0  0  0  0  0  0
  -18.7489   11.2264   20.6438 C   0  0  0  0  0  0  0  0  0  0  0  0
  -20.0982   10.8346   21.2058 C   0  0  0  0  0  0  0  0  0  0  0  0
  -18.4120   12.9502   18.8190 C   0  0  0  0  0  0  0  0  0  0  0  0
  -17.1116   13.4199   18.7814 C   0  0  0  0  0  0  0  0  0  0  0  0
  -16.5401   13.8331   17.5700 C   0  0  0  0  0  0  0  0  0  0  0  0
  -17.2633   13.7793   16.3927 C   0  0  0  0  0  0  0  0  0  0  0  0
  -18.5611   13.3100   16.4334 C   0  0  0  0  0  0  0  0  0  0  0  0
  -19.1280   12.8985   17.6437 C   0  0  0  0  0  0  0  0  0  0  0  0
  -16.6680   14.2091   15.1368 C   0  0  0  0  0  0  0  0  0  0  0  0
  -16.1995   14.5425   14.1270 N   0  0  0  0  0  0  0  0  0  0  0  0
 13 14  1  0
 14 12  1  0
 12  2  1  0
  2  3  2  0
  3  4  1  0
  4  5  1  0
  5  6  2  0
  6  7  1  0
  7  8  2  0
  8  1  1  0
  1 18  1  0
 18 19  1  0
 19 20  2  0
 19 21  1  0
 21 22  1  0
 22 23  1  0
 23 24  1  0
 24 25  1  0
 25 26  1  0
 24 27  1  0
 27 28  2  0
 28 29  1  0
 29 30  2  0
 30 31  1  0
 31 32  2  0
 30 33  1  0
 33 34  3  0
  8  9  1  0
  9 10  2  0
 10  2  1  0
 10  5  1  0
 26 21  1  0
 32 27  1  0
 13 15  1  0
 13 16  1  0
 13 17  1  0
  4 11  1  0
M  CHG 1  13   1
M  END
> <minimizedAffinity>
-8.51918

> <CNNscore>
0.4044917524

> <CNNaffinity>
5.7484564781

> <CNN_VS>
2.3252031803

> <CNNaffinity_variance>
0.3136559129

$$$$



 34 37  0  0  0  0  0  0  0  0999 V2000
  -20.6234   14.2796   26.0130 O   0  0  0  0  0  0  0  0  0  0  0  0
  -18.6221   13.0256   21.6277 C   0  0  0  0  0  0  0  0  0  0  0  0
  -17.8715   13.8478   20.7816 C   0  0  0  0  0  0  0  0  0  0  0  0
  -17.7793   15.0701   21.3695 N   0  0  0  0  0  0  0  0  0  0  0  0
  -18.4416   15.0215   22.5332 C   0  0  0  0  0  0  0  0  0  0  0  0
  -18.6274   16.0232   23.4869 C   0  0  0  0  0  0  0  0  0  0  0  0
  -19.3548   15.7293   24.6181 C   0  0  0  0  0  0  0  0  0  0  0  0
  -19.8994   14.4844   24.8322 C   0  0  0  0  0  0  0  0  0  0  0  0
  -19.7177   13.4927   23.8918 C   0  0  0  0  0  0  0  0  0  0  0  0
  -18.9836   13.7778   22.7429 C   0  0  0  0  0  0  0  0  0  0  0  0
  -17.2596   15.8668   20.9249 H   0  0  0  0  0  0  0  0  0  0  0  0
  -18.9803   11.6073   21.3973 C   0  0  0  0  0  0  0  0  0  0  0  0
  -19.0938   10.4612   19.2715 N   0  0  0  0  0  0  0  0  0  0  0  0
  -19.7538   11.4458   20.0973 C   0  0  0  0  0  0  0  0  0  0  0  0
  -18.0913   10.6994   19.1867 H   0  0  0  0  0  0  0  0  0  0  0  0
  -19.5959   10.4453   18.3354 H   0  0  0  0  0  0  0  0  0  0  0  0
  -19.2643    9.5196   19.7075 H   0  0  0  0  0  0  0  0  0  0  0  0
  -22.0052   14.2349   25.9797 C   0  0  0  0  0  0  0  0  0  0  0  0
  -22.5742   12.9962   26.5123 C   0  0  0  0  0  0  0  0  0  0  0  0
  -23.3137   13.1777   27.5700 O   0  0  0  0  0  0  0  0  0  0  0  0
  -22.4565   11.6855   26.0749 N   0  0  0  0  0  0  0  0  0  0  0  0
  -21.7540   11.1922   24.9107 C   0  0  0  0  0  0  0  0  0  0  0  0
  -22.5113    9.9973   24.3097 C   0  0  0  0  0  0  0  0  0  0  0  0
  -22.5534    8.9567   25.3199 N   0  0  0  0  0  0  0  0  0  0  0  0
  -22.3243    9.3695   26.6902 C   0  0  0  0  0  0  0  0  0  0  0  0
  -23.1279   10.6378   26.8784 C   0  0  0  0  0  0  0  0  0  0  0  0
  -22.8146    7.6214   24.9242 C   0  0  0  0  0  0  0  0  0  0  0  0
  -23.7364    6.9045   25.6655 C   0  0  0  0  0  0  0  0  0  0  0  0
  -24.0426    5.5788   25.3284 C   0  0  0  0  0  0  0  0  0  0  0  0
  -23.4307    4.9640   24.2515 C   0  0  0  0  0  0  0  0  0  0  0  0
  -22.5110    5.6822   23.5136 C   0  0  0  0  0  0  0  0  0  0  0  0
  -22.2080    7.0046   23.8526 C   0  0  0  0  0  0  0  0  0  0  0  0
  -23.7499    3.5879   23.9040 C   0  0  0  0  0  0  0  0  0  0  0  0
  -23.9926    2.4875   23.6202 N   0  0  0  0  0  0  0  0  0  0  0  0
 13 14  1  0
 14 12  1  0
 12  2  1  0
  2  3  2  0
  3  4  1  0
  4  5  1  0
  5  6  2  0
  6  7  1  0
  7  8  2  0
  8  1  1  0
  1 18  1  0
 18 19  1  0
 19 20  2  0
 19 21  1  0
 21 22  1  0
 22 23  1  0
 23 24  1  0
 24 25  1  0
 25 26  1  0
 24 27  1  0
 27 28  2  0
 28 29  1  0
 29 30  2  0
 30 31  1  0
 31 32  2  0
 30 33  1  0
 33 34  3  0
  8  9  1  0
  9 10  2  0
 10  2  1  0
 10  5  1  0
 26 21  1  0
 32 27  1  0
 13 15  1  0
 13 16  1  0
 13 17  1  0
  4 11  1  0
M  CHG 1  13   1
M  END
> <minimizedAffinity>
-10.53446

> <CNNscore>
0.3895363212

> <CNNaffinity>
6.2177634239

> <CNN_VS>
2.4220447540

> <CNNaffinity_variance>
0.2378657311

$$$$



 34 37  0  0  0  0  0  0  0  0999 V2000
  -19.0209   17.0060   25.2802 O   0  0  0  0  0  0  0  0  0  0  0  0
  -17.2083   19.3326   21.2664 C   0  0  0  0  0  0  0  0  0  0  0  0
  -16.1159   20.2045   21.2233 C   0  0  0  0  0  0  0  0  0  0  0  0
  -15.6238   20.3118   22.4860 N   0  0  0  0  0  0  0  0  0  0  0  0
  -16.3714   19.5430   23.2892 C   0  0  0  0  0  0  0  0  0  0  0  0
  -16.2571   19.3268   24.6631 C   0  0  0  0  0  0  0  0  0  0  0  0
  -17.1552   18.4812   25.2741 C   0  0  0  0  0  0  0  0  0  0  0  0
  -18.1548   17.8483   24.5724 C   0  0  0  0  0  0  0  0  0  0  0  0
  -18.2705   18.0599   23.2149 C   0  0  0  0  0  0  0  0  0  0  0  0
  -17.3677   18.9135   22.5851 C   0  0  0  0  0  0  0  0  0  0  0  0
  -14.7949   20.9148   22.7139 H   0  0  0  0  0  0  0  0  0  0  0  0
  -18.0570   18.9173   20.1262 C   0  0  0  0  0  0  0  0  0  0  0  0
  -18.8353   19.5021   17.9131 N   0  0  0  0  0  0  0  0  0  0  0  0
  -17.9372   19.9011   18.9720 C   0  0  0  0  0  0  0  0  0  0  0  0
  -18.6811   18.5047   17.6886 H   0  0  0  0  0  0  0  0  0  0  0  0
  -18.6554   20.1448   17.0865 H   0  0  0  0  0  0  0  0  0  0  0  0
  -19.8141   19.7116   18.2351 H   0  0  0  0  0  0  0  0  0  0  0  0
  -19.2075   17.1873   26.6383 C   0  0  0  0  0  0  0  0  0  0  0  0
  -19.5589   15.9634   27.3600 C   0  0  0  0  0  0  0  0  0  0  0  0
  -19.0161   15.8843   28.5422 O   0  0  0  0  0  0  0  0  0  0  0  0
  -20.3661   14.8972   26.9930 N   0  0  0  0  0  0  0  0  0  0  0  0
  -21.1340   14.7353   25.7780 C   0  0  0  0  0  0  0  0  0  0  0  0
  -22.4437   13.9905   26.0819 C   0  0  0  0  0  0  0  0  0  0  0  0
  -22.0897   12.6831   26.6022 N   0  0  0  0  0  0  0  0  0  0  0  0
  -20.7449   12.5307   27.1207 C   0  0  0  0  0  0  0  0  0  0  0  0
  -20.4790   13.7700   27.9473 C   0  0  0  0  0  0  0  0  0  0  0  0
  -23.0565   11.6473   26.5810 C   0  0  0  0  0  0  0  0  0  0  0  0
  -22.9119   10.6585   25.6247 C   0  0  0  0  0  0  0  0  0  0  0  0
  -23.8322    9.6039   25.5484 C   0  0  0  0  0  0  0  0  0  0  0  0
  -24.8991    9.5321   26.4252 C   0  0  0  0  0  0  0  0  0  0  0  0
  -25.0407   10.5207   27.3785 C   0  0  0  0  0  0  0  0  0  0  0  0
  -24.1207   11.5712   27.4518 C   0  0  0  0  0  0  0  0  0  0  0  0
  -25.8530    8.4368   26.3435 C   0  0  0  0  0  0  0  0  0  0  0  0
  -26.6249    7.5702   26.2835 N   0  0  0  0  0  0  0  0  0  0  0  0
 13 14  1  0
 14 12  1  0
 12  2  1  0
  2  3  2  0
  3  4  1  0
  4  5  1  0
  5  6  2  0
  6  7  1  0
  7  8  2  0
  8  1  1  0
  1 18  1  0
 18 19  1  0
 19 20  2  0
 19 21  1  0
 21 22  1  0
 22 23  1  0
 23 24  1  0
 24 25  1  0
 25 26  1  0
 24 27  1  0
 27 28  2  0
 28 29  1  0
 29 30  2  0
 30 31  1  0
 31 32  2  0
 30 33  1  0
 33 34  3  0
  8  9  1  0
  9 10  2  0
 10  2  1  0
 10  5  1  0
 26 21  1  0
 32 27  1  0
 13 15  1  0
 13 16  1  0
 13 17  1  0
  4 11  1  0
M  CHG 1  13   1
M  END
> <minimizedAffinity>
-7.63880

> <CNNscore>
0.3329640031

> <CNNaffinity>
5.2463326454

> <CNN_VS>
1.7468398809

> <CNNaffinity_variance>
0.0689514428

$$$$



 34 37  0  0  0  0  0  0  0  0999 V2000
  -23.4396    8.0125   28.4954 O   0  0  0  0  0  0  0  0  0  0  0  0
  -22.0355   12.5790   27.0868 C   0  0  0  0  0  0  0  0  0  0  0  0
  -22.8678   13.6204   26.6648 C   0  0  0  0  0  0  0  0  0  0  0  0
  -24.1487   13.1667   26.7044 N   0  0  0  0  0  0  0  0  0  0  0  0
  -24.1257   11.8970   27.1317 C   0  0  0  0  0  0  0  0  0  0  0  0
  -25.1867   11.0136   27.3350 C   0  0  0  0  0  0  0  0  0  0  0  0
  -24.9090    9.7429   27.7857 C   0  0  0  0  0  0  0  0  0  0  0  0
  -23.6237    9.3233   28.0392 C   0  0  0  0  0  0  0  0  0  0  0  0
  -22.5733   10.1938   27.8391 C   0  0  0  0  0  0  0  0  0  0  0  0
  -22.8414   11.4823   27.3832 C   0  0  0  0  0  0  0  0  0  0  0  0
  -24.9641   13.7691   26.4315 H   0  0  0  0  0  0  0  0  0  0  0  0
  -20.5597   12.6150   27.2036 C   0  0  0  0  0  0  0  0  0  0  0  0
  -20.0402   14.4150   28.7319 N   0  0  0  0  0  0  0  0  0  0  0  0
  -20.0591   14.0455   27.3355 C   0  0  0  0  0  0  0  0  0  0  0  0
  -20.9598   14.2058   29.1558 H   0  0  0  0  0  0  0  0  0  0  0  0
  -19.7856   15.4451   28.7834 H   0  0  0  0  0  0  0  0  0  0  0  0
  -19.2443   13.8971   29.1837 H   0  0  0  0  0  0  0  0  0  0  0  0
  -23.0331    7.0240   27.6180 C   0  0  0  0  0  0  0  0  0  0  0  0
  -21.9369    7.4251   26.7350 C   0  0  0  0  0  0  0  0  0  0  0  0
  -20.7568    7.1546   27.2174 O   0  0  0  0  0  0  0  0  0  0  0  0
  -21.9557    8.0321   25.4883 N   0  0  0  0  0  0  0  0  0  0  0  0
  -23.1052    8.3961   24.6895 C   0  0  0  0  0  0  0  0  0  0  0  0
  -22.7866    8.2082   23.1976 C   0  0  0  0  0  0  0  0  0  0  0  0
  -21.6807    9.0902   22.8748 N   0  0  0  0  0  0  0  0  0  0  0  0
  -20.8783    9.5623   23.9856 C   0  0  0  0  0  0  0  0  0  0  0  0
  -20.6491    8.3561   24.8703 C   0  0  0  0  0  0  0  0  0  0  0  0
  -21.4448    9.4335   21.5204 C   0  0  0  0  0  0  0  0  0  0  0  0
  -21.6480    8.4513   20.5680 C   0  0  0  0  0  0  0  0  0  0  0  0
  -21.4342    8.7235   19.2097 C   0  0  0  0  0  0  0  0  0  0  0  0
  -21.0171    9.9756   18.7970 C   0  0  0  0  0  0  0  0  0  0  0  0
  -20.8150   10.9539   19.7500 C   0  0  0  0  0  0  0  0  0  0  0  0
  -21.0295   10.6789   21.1042 C   0  0  0  0  0  0  0  0  0  0  0  0
  -20.7954   10.2554   17.3867 C   0  0  0  0  0  0  0  0  0  0  0  0
  -20.6143   10.4918   16.2635 N   0  0  0  0  0  0  0  0  0  0  0  0
 13 14  1  0
 14 12  1  0
 12  2  1  0
  2  3  2  0
  3  4  1  0
  4  5  1  0
  5  6  2  0
  6  7  1  0
  7  8  2  0
  8  1  1  0
  1 18  1  0
 18 19  1  0
 19 20  2  0
 19 21  1  0
 21 22  1  0
 22 23  1  0
 23 24  1  0
 24 25  1  0
 25 26  1  0
 24 27  1  0
 27 28  2  0
 28 29  1  0
 29 30  2  0
 30 31  1  0
 31 32  2  0
 30 33  1  0
 33 34  3  0
  8  9  1  0
  9 10  2  0
 10  2  1  0
 10  5  1  0
 26 21  1  0
 32 27  1  0
 13 15  1  0
 13 16  1  0
 13 17  1  0
  4 11  1  0
M  CHG 1  13   1
M  END
> <minimizedAffinity>
-9.93357

> <CNNscore>
0.3261477053

> <CNNaffinity>
6.3422532082

> <CNN_VS>
2.0685112476

> <CNNaffinity_variance>
0.3032738566

$$$$



 34 37  0  0  0  0  0  0  0  0999 V2000
  -18.5970   14.8855   24.3908 O   0  0  0  0  0  0  0  0  0  0  0  0
  -18.9174   19.0198   21.6315 C   0  0  0  0  0  0  0  0  0  0  0  0
  -18.6498   19.1395   20.2643 C   0  0  0  0  0  0  0  0  0  0  0  0
  -18.2799   17.9136   19.8075 N   0  0  0  0  0  0  0  0  0  0  0  0
  -18.3126   17.0595   20.8393 C   0  0  0  0  0  0  0  0  0  0  0  0
  -18.0170   15.6960   20.8677 C   0  0  0  0  0  0  0  0  0  0  0  0
  -18.1257   15.0229   22.0636 C   0  0  0  0  0  0  0  0  0  0  0  0
  -18.5148   15.6531   23.2227 C   0  0  0  0  0  0  0  0  0  0  0  0
  -18.8074   17.0002   23.1980 C   0  0  0  0  0  0  0  0  0  0  0  0
  -18.7011   17.6924   21.9940 C   0  0  0  0  0  0  0  0  0  0  0  0
  -18.0266   17.7441   18.8028 H   0  0  0  0  0  0  0  0  0  0  0  0
  -19.3530   20.0986   22.5477 C   0  0  0  0  0  0  0  0  0  0  0  0
  -20.1747   19.8757   24.8106 N   0  0  0  0  0  0  0  0  0  0  0  0
  -18.9919   19.7680   23.9881 C   0  0  0  0  0  0  0  0  0  0  0  0
  -20.6266   20.7909   24.6454 H   0  0  0  0  0  0  0  0  0  0  0  0
  -19.8719   19.7401   25.8198 H   0  0  0  0  0  0  0  0  0  0  0  0
  -20.7930   19.0567   24.5813 H   0  0  0  0  0  0  0  0  0  0  0  0
  -19.3307   15.3426   25.4702 C   0  0  0  0  0  0  0  0  0  0  0  0
  -20.6592   14.7395   25.5858 C   0  0  0  0  0  0  0  0  0  0  0  0
  -21.6305   15.5731   25.3406 O   0  0  0  0  0  0  0  0  0  0  0  0
  -21.0399   13.4448   25.9049 N   0  0  0  0  0  0  0  0  0  0  0  0
  -20.1912   12.3038   26.1695 C   0  0  0  0  0  0  0  0  0  0  0  0
  -20.8540   11.0236   25.6364 C   0  0  0  0  0  0  0  0  0  0  0  0
  -22.1112   10.8588   26.3418 N   0  0  0  0  0  0  0  0  0  0  0  0
  -22.6568   12.0376   26.9847 C   0  0  0  0  0  0  0  0  0  0  0  0
  -22.4920   13.1641   25.9879 C   0  0  0  0  0  0  0  0  0  0  0  0
  -22.7289    9.5837   26.3619 C   0  0  0  0  0  0  0  0  0  0  0  0
  -24.0898    9.5296   26.1206 C   0  0  0  0  0  0  0  0  0  0  0  0
  -24.7639    8.3006   26.1247 C   0  0  0  0  0  0  0  0  0  0  0  0
  -24.0833    7.1221   26.3695 C   0  0  0  0  0  0  0  0  0  0  0  0
  -22.7250    7.1793   26.6101 C   0  0  0  0  0  0  0  0  0  0  0  0
  -22.0557    8.4071   26.6051 C   0  0  0  0  0  0  0  0  0  0  0  0
  -24.7853    5.8480   26.3737 C   0  0  0  0  0  0  0  0  0  0  0  0
  -25.3565    4.8360   26.3698 N   0  0  0  0  0  0  0  0  0  0  0  0
 13 14  1  0
 14 12  1  0
 12  2  1  0
  2  3  2  0
  3  4  1  0
  4  5  1  0
  5  6  2  0
  6  7  1  0
  7  8  2  0
  8  1  1  0
  1 18  1  0
 18 19  1  0
 19 20  2  0
 19 21  1  0
 21 22  1  0
 22 23  1  0
 23 24  1  0
 24 25  1  0
 25 26  1  0
 24 27  1  0
 27 28  2  0
 28 29  1  0
 29 30  2  0
 30 31  1  0
 31 32  2  0
 30 33  1  0
 33 34  3  0
  8  9  1  0
  9 10  2  0
 10  2  1  0
 10  5  1  0
 26 21  1  0
 32 27  1  0
 13 15  1  0
 13 16  1  0
 13 17  1  0
  4 11  1  0
M  CHG 1  13   1
M  END
> <minimizedAffinity>
-7.82713

> <CNNscore>
0.2840175927

> <CNNaffinity>
5.3357782364

> <CNN_VS>
1.5154548883

> <CNNaffinity_variance>
0.1460719258

$$$$



 34 37  0  0  0  0  0  0  0  0999 V2000
  -18.7145   13.8529   20.4643 O   0  0  0  0  0  0  0  0  0  0  0  0
  -17.8907   18.5141   22.0144 C   0  0  0  0  0  0  0  0  0  0  0  0
  -17.9799   18.9908   23.3259 C   0  0  0  0  0  0  0  0  0  0  0  0
  -18.3366   17.9472   24.1208 N   0  0  0  0  0  0  0  0  0  0  0  0
  -18.4668   16.8617   23.3463 C   0  0  0  0  0  0  0  0  0  0  0  0
  -18.8161   15.5584   23.7025 C   0  0  0  0  0  0  0  0  0  0  0  0
  -18.8844   14.6013   22.7155 C   0  0  0  0  0  0  0  0  0  0  0  0
  -18.6197   14.8924   21.3974 C   0  0  0  0  0  0  0  0  0  0  0  0
  -18.2744   16.1791   21.0422 C   0  0  0  0  0  0  0  0  0  0  0  0
  -18.2020   17.1566   22.0319 C   0  0  0  0  0  0  0  0  0  0  0  0
  -18.4682   18.0529   25.1571 H   0  0  0  0  0  0  0  0  0  0  0  0
  -17.5321   19.2961   20.8090 C   0  0  0  0  0  0  0  0  0  0  0  0
  -18.2994   20.1065   18.6643 N   0  0  0  0  0  0  0  0  0  0  0  0
  -18.6956   19.3516   19.8305 C   0  0  0  0  0  0  0  0  0  0  0  0
  -17.9004   21.0132   18.9604 H   0  0  0  0  0  0  0  0  0  0  0  0
  -19.1592   20.2139   18.0495 H   0  0  0  0  0  0  0  0  0  0  0  0
  -17.6256   19.5117   18.1184 H   0  0  0  0  0  0  0  0  0  0  0  0
  -18.3187   12.5736   20.8094 C   0  0  0  0  0  0  0  0  0  0  0  0
  -19.3577   11.5590   20.6274 C   0  0  0  0  0  0  0  0  0  0  0  0
  -19.4585   11.1342   19.3994 O   0  0  0  0  0  0  0  0  0  0  0  0
  -20.2321   10.9863   21.5387 N   0  0  0  0  0  0  0  0  0  0  0  0
  -20.3146   11.2180   22.9641 C   0  0  0  0  0  0  0  0  0  0  0  0
  -20.7011    9.9164   23.6844 C   0  0  0  0  0  0  0  0  0  0  0  0
  -22.0043    9.5155   23.1884 N   0  0  0  0  0  0  0  0  0  0  0  0
  -22.4227   10.0841   21.9226 C   0  0  0  0  0  0  0  0  0  0  0  0
  -21.2132   10.0072   21.0165 C   0  0  0  0  0  0  0  0  0  0  0  0
  -22.7815    8.6060   23.9478 C   0  0  0  0  0  0  0  0  0  0  0  0
  -22.4981    7.2587   23.8157 C   0  0  0  0  0  0  0  0  0  0  0  0
  -23.2279    6.3049   24.5386 C   0  0  0  0  0  0  0  0  0  0  0  0
  -24.2423    6.6915   25.3950 C   0  0  0  0  0  0  0  0  0  0  0  0
  -24.5230    8.0371   25.5246 C   0  0  0  0  0  0  0  0  0  0  0  0
  -23.7928    8.9859   24.8021 C   0  0  0  0  0  0  0  0  0  0  0  0
  -24.9985    5.6996   26.1437 C   0  0  0  0  0  0  0  0  0  0  0  0
  -25.6128    4.9080   26.7324 N   0  0  0  0  0  0  0  0  0  0  0  0
 13 14  1  0
 14 12  1  0
 12  2  1  0
  2  3  2  0
  3  4  1  0
  4  5  1  0
  5  6  2  0
  6  7  1  0
  7  8  2  0
  8  1  1  0
  1 18  1  0
 18 19  1  0
 19 20  2  0
 19 21  1  0
 21 22  1  0
 22 23  1  0
 23 24  1  0
 24 25  1  0
 25 26  1  0
 24 27  1  0
 27 28  2  0
 28 29  1  0
 29 30  2  0
 30 31  1  0
 31 32  2  0
 30 33  1  0
 33 34  3  0
  8  9  1  0
  9 10  2  0
 10  2  1  0
 10  5  1  0
 26 21  1  0
 32 27  1  0
 13 15  1  0
 13 16  1  0
 13 17  1  0
  4 11  1  0
M  CHG 1  13   1
M  END
> <minimizedAffinity>
-7.89568

> <CNNscore>
0.2749025822

> <CNNaffinity>
5.6476988792

> <CNN_VS>
1.5525670052

> <CNNaffinity_variance>
0.1538935602

$$$$



 34 37  0  0  0  0  0  0  0  0999 V2000
  -19.1000   14.2723   25.1546 O   0  0  0  0  0  0  0  0  0  0  0  0
  -19.0891   18.3564   22.3036 C   0  0  0  0  0  0  0  0  0  0  0  0
  -19.5570   19.6265   22.6546 C   0  0  0  0  0  0  0  0  0  0  0  0
  -20.0245   19.5562   23.9292 N   0  0  0  0  0  0  0  0  0  0  0  0
  -19.8593   18.2993   24.3626 C   0  0  0  0  0  0  0  0  0  0  0  0
  -20.1838   17.7411   25.5998 C   0  0  0  0  0  0  0  0  0  0  0  0
  -19.9137   16.4081   25.8126 C   0  0  0  0  0  0  0  0  0  0  0  0
  -19.3371   15.6173   24.8461 C   0  0  0  0  0  0  0  0  0  0  0  0
  -19.0154   16.1657   23.6227 C   0  0  0  0  0  0  0  0  0  0  0  0
  -19.2838   17.5134   23.3952 C   0  0  0  0  0  0  0  0  0  0  0  0
  -20.4312   20.3891   24.4225 H   0  0  0  0  0  0  0  0  0  0  0  0
  -18.4912   17.9582   21.0087 C   0  0  0  0  0  0  0  0  0  0  0  0
  -18.9535   19.2300   19.0051 N   0  0  0  0  0  0  0  0  0  0  0  0
  -18.1183   19.1802   20.1828 C   0  0  0  0  0  0  0  0  0  0  0  0
  -18.9208   18.3169   18.5210 H   0  0  0  0  0  0  0  0  0  0  0  0
  -18.6026   20.0309   18.4018 H   0  0  0  0  0  0  0  0  0  0  0  0
  -19.9200   19.5037   19.3161 H   0  0  0  0  0  0  0  0  0  0  0  0
  -20.1589   13.4294   25.4385 C   0  0  0  0  0  0  0  0  0  0  0  0
  -20.9563   13.0596   24.2683 C   0  0  0  0  0  0  0  0  0  0  0  0
  -22.2414   13.1110   24.4789 O   0  0  0  0  0  0  0  0  0  0  0  0
  -20.5677   12.6748   22.9939 N   0  0  0  0  0  0  0  0  0  0  0  0
  -19.2270   12.5812   22.4592 C   0  0  0  0  0  0  0  0  0  0  0  0
  -19.2269   12.9778   20.9742 C   0  0  0  0  0  0  0  0  0  0  0  0
  -20.0877   12.0426   20.2745 N   0  0  0  0  0  0  0  0  0  0  0  0
  -21.0393   11.3045   21.0808 C   0  0  0  0  0  0  0  0  0  0  0  0
  -21.6387   12.3127   22.0369 C   0  0  0  0  0  0  0  0  0  0  0  0
  -19.9594   11.9052   18.8699 C   0  0  0  0  0  0  0  0  0  0  0  0
  -20.6560   10.8760   18.2628 C   0  0  0  0  0  0  0  0  0  0  0  0
  -20.5745   10.6837   16.8767 C   0  0  0  0  0  0  0  0  0  0  0  0
  -19.7984   11.5167   16.0920 C   0  0  0  0  0  0  0  0  0  0  0  0
  -19.1041   12.5431   16.7010 C   0  0  0  0  0  0  0  0  0  0  0  0
  -19.1879   12.7321   18.0840 C   0  0  0  0  0  0  0  0  0  0  0  0
  -19.7152   11.3147   14.6538 C   0  0  0  0  0  0  0  0  0  0  0  0
  -19.6570   11.1421   13.5061 N   0  0  0  0  0  0  0  0  0  0  0  0
 13 14  1  0
 14 12  1  0
 12  2  1  0
  2  3  2  0
  3  4  1  0
  4  5  1  0
  5  6  2  0
  6  7  1  0
  7  8  2  0
  8  1  1  0
  1 18  1  0
 18 19  1  0
 19 20  2  0
 19 21  1  0
 21 22  1  0
 22 23  1  0
 23 24  1  0
 24 25  1  0
 25 26  1  0
 24 27  1  0
 27 28  2  0
 28 29  1  0
 29 30  2  0
 30 31  1  0
 31 32  2  0
 30 33  1  0
 33 34  3  0
  8  9  1  0
  9 10  2  0
 10  2  1  0
 10  5  1  0
 26 21  1  0
 32 27  1  0
 13 15  1  0
 13 16  1  0
 13 17  1  0
  4 11  1  0
M  CHG 1  13   1
M  END
> <minimizedAffinity>
-7.86530

> <CNNscore>
0.2741704583

> <CNNaffinity>
5.9855771065

> <CNN_VS>
1.6410684586

> <CNNaffinity_variance>
0.1334769428

$$$$



 34 37  0  0  0  0  0  0  0  0999 V2000
  -19.9680   11.2036   16.6486 O   0  0  0  0  0  0  0  0  0  0  0  0
  -17.0860   15.2035   15.9389 C   0  0  0  0  0  0  0  0  0  0  0  0
  -15.9483   15.5589   16.6700 C   0  0  0  0  0  0  0  0  0  0  0  0
  -15.7589   14.6103   17.6253 N   0  0  0  0  0  0  0  0  0  0  0  0
  -16.7327   13.6983   17.5027 C   0  0  0  0  0  0  0  0  0  0  0  0
  -16.9612   12.5432   18.2518 C   0  0  0  0  0  0  0  0  0  0  0  0
  -18.0418   11.7530   17.9311 C   0  0  0  0  0  0  0  0  0  0  0  0
  -18.8961   12.0685   16.9002 C   0  0  0  0  0  0  0  0  0  0  0  0
  -18.6731   13.2091   16.1584 C   0  0  0  0  0  0  0  0  0  0  0  0
  -17.5830   14.0170   16.4731 C   0  0  0  0  0  0  0  0  0  0  0  0
  -14.9614   14.6543   18.3068 H   0  0  0  0  0  0  0  0  0  0  0  0
  -17.6740   15.9428   14.7984 C   0  0  0  0  0  0  0  0  0  0  0  0
  -18.3888   18.2123   15.2275 N   0  0  0  0  0  0  0  0  0  0  0  0
  -17.2590   17.4062   14.8266 C   0  0  0  0  0  0  0  0  0  0  0  0
  -19.2066   17.9746   14.6412 H   0  0  0  0  0  0  0  0  0  0  0  0
  -18.0984   19.2304   15.1393 H   0  0  0  0  0  0  0  0  0  0  0  0
  -18.5469   18.0442   16.2534 H   0  0  0  0  0  0  0  0  0  0  0  0
  -20.4321   10.3666   17.6467 C   0  0  0  0  0  0  0  0  0  0  0  0
  -21.2480   11.0405   18.6578 C   0  0  0  0  0  0  0  0  0  0  0  0
  -22.4889   11.2077   18.2960 O   0  0  0  0  0  0  0  0  0  0  0  0
  -20.9165   11.5161   19.9175 N   0  0  0  0  0  0  0  0  0  0  0  0
  -19.6449   11.4241   20.6007 C   0  0  0  0  0  0  0  0  0  0  0  0
  -19.8734   11.2441   22.1099 C   0  0  0  0  0  0  0  0  0  0  0  0
  -20.5879   12.4145   22.5841 N   0  0  0  0  0  0  0  0  0  0  0  0
  -21.2825   13.2025   21.5855 C   0  0  0  0  0  0  0  0  0  0  0  0
  -21.9792   12.2055   20.6853 C   0  0  0  0  0  0  0  0  0  0  0  0
  -20.5737   12.7176   23.9683 C   0  0  0  0  0  0  0  0  0  0  0  0
  -20.5885   14.0526   24.3297 C   0  0  0  0  0  0  0  0  0  0  0  0
  -20.5766   14.4227   25.6817 C   0  0  0  0  0  0  0  0  0  0  0  0
  -20.5497   13.4632   26.6770 C   0  0  0  0  0  0  0  0  0  0  0  0
  -20.5349   12.1315   26.3130 C   0  0  0  0  0  0  0  0  0  0  0  0
  -20.5470   11.7658   24.9633 C   0  0  0  0  0  0  0  0  0  0  0  0
  -20.5370   13.8501   28.0793 C   0  0  0  0  0  0  0  0  0  0  0  0
  -20.5342   14.1478   29.2026 N   0  0  0  0  0  0  0  0  0  0  0  0
 13 14  1  0
 14 12  1  0
 12  2  1  0
  2  3  2  0
  3  4  1  0
  4  5  1  0
  5  6  2  0
  6  7  1  0
  7  8  2  0
  8  1  1  0
  1 18  1  0
 18 19  1  0
 19 20  2  0
 19 21  1  0
 21 22  1  0
 22 23  1  0
 23 24  1  0
 24 25  1  0
 25 26  1  0
 24 27  1  0
 27 28  2  0
 28 29  1  0
 29 30  2  0
 30 31  1  0
 31 32  2  0
 30 33  1  0
 33 34  3  0
  8  9  1  0
  9 10  2  0
 10  2  1  0
 10  5  1  0
 26 21  1  0
 32 27  1  0
 13 15  1  0
 13 16  1  0
 13 17  1  0
  4 11  1  0
M  CHG 1  13   1
M  END
> <minimizedAffinity>
-9.53133

> <CNNscore>
0.2568863928

> <CNNaffinity>
6.3548035622

> <CNN_VS>
1.6324626207

> <CNNaffinity_variance>
0.0232303701

$$$$
