


 46 53  0  0  0  0  0  0  0  0999 V2000
  -19.3434   12.1920   23.9617 C   0  0  0  0  0  0  0  0  0  0  0  0
  -18.4809   11.8880   25.1639 C   0  0  0  0  0  0  0  0  0  0  0  0
  -20.2003   13.2096   24.3265 O   0  0  0  0  0  0  0  0  0  0  0  0
  -19.7303   14.4096   23.8459 C   0  0  0  0  0  0  0  0  0  0  0  0
  -20.7652   15.0002   23.1200 O   0  0  0  0  0  0  0  0  0  0  0  0
  -19.4535   15.2954   25.0171 C   0  0  0  0  0  0  0  0  0  0  0  0
  -20.5480   16.3430   25.2391 C   0  0  0  0  0  0  0  0  0  0  0  0
  -19.8292   17.3902   26.0740 C   0  0  0  0  0  0  0  0  0  0  0  0
  -18.3478   17.1038   25.9588 C   0  0  0  0  0  0  0  0  0  0  0  0
  -18.3076   16.1688   24.8494 N   0  0  0  0  0  0  0  0  0  0  0  0
  -17.3867   16.0461   23.7720 C   0  0  0  0  0  0  0  0  0  0  0  0
  -16.2432   16.5720   23.8146 O   0  0  0  0  0  0  0  0  0  0  0  0
  -17.7937   15.2754   22.5698 C   0  0  0  0  0  0  0  0  0  0  0  0
  -18.5669   14.1616   23.0296 N   0  0  0  0  0  0  0  0  0  0  0  0
  -18.4824   12.7367   22.8793 C   0  0  0  0  0  0  0  0  0  0  0  0
  -17.8114   12.1308   22.0048 O   0  0  0  0  0  0  0  0  0  0  0  0
  -21.2823   14.3147   22.6243 H   0  0  0  0  0  0  0  0  0  0  0  0
  -20.9691   11.0377   22.4261 C   0  0  0  0  0  0  0  0  0  0  0  0
  -21.1135   12.0418   21.6822 O   0  0  0  0  0  0  0  0  0  0  0  0
  -20.1205   11.0455   23.5543 N   0  0  0  0  0  0  0  0  0  0  0  0
  -20.0789   10.1382   24.1080 H   0  0  0  0  0  0  0  0  0  0  0  0
  -19.7353    7.2540   20.8172 C   0  0  0  0  0  0  0  0  0  0  0  0
  -21.0886    7.7141   20.9466 N   0  0  0  0  0  0  0  0  0  0  0  0
  -21.2575    9.1177   20.8485 C   0  0  0  0  0  0  0  0  0  0  0  0
  -21.7401    9.8105   22.0706 C   0  0  0  0  0  0  0  0  0  0  0  0
  -21.9186    8.9104   23.2772 C   0  0  0  0  0  0  0  0  0  0  0  0
  -22.7577    7.7767   22.7745 C   0  0  0  0  0  0  0  0  0  0  0  0
  -21.8971    6.9794   21.8346 C   0  0  0  0  0  0  0  0  0  0  0  0
  -22.7468    5.8962   21.1788 C   0  0  0  0  0  0  0  0  0  0  0  0
  -23.2725    5.0109   22.2471 C   0  0  0  0  0  0  0  0  0  0  0  0
  -23.6278    3.6834   22.3647 C   0  0  0  0  0  0  0  0  0  0  0  0
  -24.0546    3.4635   23.6450 N   0  0  0  0  0  0  0  0  0  0  0  0
  -23.9831    4.6082   24.3489 C   0  0  0  0  0  0  0  0  0  0  0  0
  -24.2622    5.0095   25.6378 C   0  0  0  0  0  0  0  0  0  0  0  0
  -24.0531    6.3374   26.0214 C   0  0  0  0  0  0  0  0  0  0  0  0
  -23.5611    7.2762   25.1131 C   0  0  0  0  0  0  0  0  0  0  0  0
  -23.2786    6.8743   23.8116 C   0  0  0  0  0  0  0  0  0  0  0  0
  -23.5012    5.5603   23.4857 C   0  0  0  0  0  0  0  0  0  0  0  0
  -24.3935    2.5594   24.0573 H   0  0  0  0  0  0  0  0  0  0  0  0
  -18.5249   16.1455   21.5732 C   0  0  0  0  0  0  0  0  0  0  0  0
  -17.8160   15.9497   20.2608 C   0  0  0  0  0  0  0  0  0  0  0  0
  -17.2119   14.7139   20.0836 C   0  0  0  0  0  0  0  0  0  0  0  0
  -16.5332   14.4319   18.9098 C   0  0  0  0  0  0  0  0  0  0  0  0
  -16.4760   15.4119   17.9259 C   0  0  0  0  0  0  0  0  0  0  0  0
  -17.0903   16.6362   18.1347 C   0  0  0  0  0  0  0  0  0  0  0  0
  -17.7718   16.9350   19.2998 C   0  0  0  0  0  0  0  0  0  0  0  0
 22 23  1  0
 23 24  1  0
 24 25  1  0
 25 26  1  0
 26 27  1  0
 27 28  1  0
 28 29  1  0
 29 30  1  0
 30 31  2  0
 31 32  1  0
 32 33  1  0
 33 34  2  0
 34 35  1  0
 35 36  2  0
 36 37  1  0
 37 38  2  0
 25 18  1  0
 18 19  2  0
 18 20  1  0
  1 20  1  0
  1  2  1  0
  1  3  1  0
  3  4  1  0
  4  5  1  0
  4  6  1  0
  6  7  1  0
  7  8  1  0
  8  9  1  0
  9 10  1  0
 10 11  1  0
 11 12  2  0
 11 13  1  0
 13 40  1  0
 40 41  1  0
 41 42  2  0
 42 43  1  0
 43 44  2  0
 44 45  1  0
 45 46  2  0
 13 14  1  0
 14 15  1  0
 15 16  2  0
 28 23  1  0
 37 27  1  0
 38 30  1  0
 38 33  1  0
 15  1  1  0
 14  4  1  0
 10  6  1  0
 46 41  1  0
 32 39  1  0
 20 21  1  0
  5 17  1  0
M  END
> <minimizedAffinity>
-12.88054

> <CNNscore>
0.5183534026

> <CNNaffinity>
7.3809041977

> <CNN_VS>
3.8259167671

> <CNNaffinity_variance>
0.1703465879

$$$$



 46 53  0  0  0  0  0  0  0  0999 V2000
  -19.7526    9.4677   24.2462 C   0  0  0  0  0  0  0  0  0  0  0  0
  -18.8457    8.3724   24.7555 C   0  0  0  0  0  0  0  0  0  0  0  0
  -20.4451    8.9510   23.1709 O   0  0  0  0  0  0  0  0  0  0  0  0
  -21.7090    8.5788   23.5658 C   0  0  0  0  0  0  0  0  0  0  0  0
  -22.6136    9.2070   22.7092 O   0  0  0  0  0  0  0  0  0  0  0  0
  -21.8433    7.1070   23.3444 C   0  0  0  0  0  0  0  0  0  0  0  0
  -22.6411    6.7683   22.0821 C   0  0  0  0  0  0  0  0  0  0  0  0
  -23.0801    5.3381   22.3506 C   0  0  0  0  0  0  0  0  0  0  0  0
  -22.8662    5.0820   23.8265 C   0  0  0  0  0  0  0  0  0  0  0  0
  -22.6511    6.4237   24.3365 N   0  0  0  0  0  0  0  0  0  0  0  0
  -23.0927    7.0410   25.5399 C   0  0  0  0  0  0  0  0  0  0  0  0
  -23.4946    6.3642   26.5230 O   0  0  0  0  0  0  0  0  0  0  0  0
  -23.0753    8.5231   25.6294 C   0  0  0  0  0  0  0  0  0  0  0  0
  -21.9020    8.9695   24.9411 N   0  0  0  0  0  0  0  0  0  0  0  0
  -20.7661    9.7749   25.2893 C   0  0  0  0  0  0  0  0  0  0  0  0
  -20.6951   10.5546   26.2737 O   0  0  0  0  0  0  0  0  0  0  0  0
  -22.3007   10.1181   22.4747 H   0  0  0  0  0  0  0  0  0  0  0  0
  -19.2500   11.3027   22.5990 C   0  0  0  0  0  0  0  0  0  0  0  0
  -20.1469   10.9439   21.7932 O   0  0  0  0  0  0  0  0  0  0  0  0
  -19.0062   10.6252   23.8133 N   0  0  0  0  0  0  0  0  0  0  0  0
  -18.2219   11.0199   24.4137 H   0  0  0  0  0  0  0  0  0  0  0  0
  -19.2878   13.8074   19.1129 C   0  0  0  0  0  0  0  0  0  0  0  0
  -18.2876   13.8102   20.1422 N   0  0  0  0  0  0  0  0  0  0  0  0
  -18.0804   12.5625   20.7814 C   0  0  0  0  0  0  0  0  0  0  0  0
  -18.4334   12.4937   22.2227 C   0  0  0  0  0  0  0  0  0  0  0  0
  -19.0337   13.7663   22.7866 C   0  0  0  0  0  0  0  0  0  0  0  0
  -18.0727   14.8414   22.3830 C   0  0  0  0  0  0  0  0  0  0  0  0
  -18.1924   14.9975   20.8927 C   0  0  0  0  0  0  0  0  0  0  0  0
  -17.1294   15.9773   20.4075 C   0  0  0  0  0  0  0  0  0  0  0  0
  -17.3698   17.2844   21.0674 C   0  0  0  0  0  0  0  0  0  0  0  0
  -17.1719   18.6143   20.7599 C   0  0  0  0  0  0  0  0  0  0  0  0
  -17.6133   19.3696   21.8108 N   0  0  0  0  0  0  0  0  0  0  0  0
  -18.0869   18.5647   22.7795 C   0  0  0  0  0  0  0  0  0  0  0  0
  -18.6449   18.7247   24.0298 C   0  0  0  0  0  0  0  0  0  0  0  0
  -19.0314   17.6072   24.7754 C   0  0  0  0  0  0  0  0  0  0  0  0
  -18.8611   16.3165   24.2719 C   0  0  0  0  0  0  0  0  0  0  0  0
  -18.2981   16.1517   23.0104 C   0  0  0  0  0  0  0  0  0  0  0  0
  -17.9359   17.2803   22.3196 C   0  0  0  0  0  0  0  0  0  0  0  0
  -17.6035   20.4164   21.8916 H   0  0  0  0  0  0  0  0  0  0  0  0
  -24.3537    9.1271   25.0945 C   0  0  0  0  0  0  0  0  0  0  0  0
  -25.1025    9.6325   26.2974 C   0  0  0  0  0  0  0  0  0  0  0  0
  -24.3757   10.4364   27.1628 C   0  0  0  0  0  0  0  0  0  0  0  0
  -24.9724   10.9535   28.3005 C   0  0  0  0  0  0  0  0  0  0  0  0
  -26.3055   10.6471   28.5469 C   0  0  0  0  0  0  0  0  0  0  0  0
  -27.0033    9.8408   27.6620 C   0  0  0  0  0  0  0  0  0  0  0  0
  -26.4238    9.3161   26.5218 C   0  0  0  0  0  0  0  0  0  0  0  0
 22 23  1  0
 23 24  1  0
 24 25  1  0
 25 26  1  0
 26 27  1  0
 27 28  1  0
 28 29  1  0
 29 30  1  0
 30 31  2  0
 31 32  1  0
 32 33  1  0
 33 34  2  0
 34 35  1  0
 35 36  2  0
 36 37  1  0
 37 38  2  0
 25 18  1  0
 18 19  2  0
 18 20  1  0
  1 20  1  0
  1  2  1  0
  1  3  1  0
  3  4  1  0
  4  5  1  0
  4  6  1  0
  6  7  1  0
  7  8  1  0
  8  9  1  0
  9 10  1  0
 10 11  1  0
 11 12  2  0
 11 13  1  0
 13 40  1  0
 40 41  1  0
 41 42  2  0
 42 43  1  0
 43 44  2  0
 44 45  1  0
 45 46  2  0
 13 14  1  0
 14 15  1  0
 15 16  2  0
 28 23  1  0
 37 27  1  0
 38 30  1  0
 38 33  1  0
 15  1  1  0
 14  4  1  0
 10  6  1  0
 46 41  1  0
 32 39  1  0
 20 21  1  0
  5 17  1  0
M  END
> <minimizedAffinity>
-13.55065

> <CNNscore>
0.1843744665

> <CNNaffinity>
6.4888677597

> <CNN_VS>
1.1963815689

> <CNNaffinity_variance>
0.4287990034

$$$$



 46 53  0  0  0  0  0  0  0  0999 V2000
  -18.8908   11.8800   23.0348 C   0  0  0  0  0  0  0  0  0  0  0  0
  -17.5757   12.1008   23.7442 C   0  0  0  0  0  0  0  0  0  0  0  0
  -19.4618   13.1215   22.8473 O   0  0  0  0  0  0  0  0  0  0  0  0
  -19.2451   13.5443   21.5565 C   0  0  0  0  0  0  0  0  0  0  0  0
  -20.4871   13.8761   21.0141 O   0  0  0  0  0  0  0  0  0  0  0  0
  -18.4407   14.8023   21.6154 C   0  0  0  0  0  0  0  0  0  0  0  0
  -19.2879   16.0580   21.3917 C   0  0  0  0  0  0  0  0  0  0  0  0
  -18.2445   17.0830   20.9782 C   0  0  0  0  0  0  0  0  0  0  0  0
  -16.9905   16.3149   20.6213 C   0  0  0  0  0  0  0  0  0  0  0  0
  -17.4863   14.9537   20.5337 N   0  0  0  0  0  0  0  0  0  0  0  0
  -17.1714   13.9081   19.6217 C   0  0  0  0  0  0  0  0  0  0  0  0
  -16.1283   13.9358   18.9165 O   0  0  0  0  0  0  0  0  0  0  0  0
  -18.1033   12.7579   19.5056 C   0  0  0  0  0  0  0  0  0  0  0  0
  -18.5967   12.4855   20.8217 N   0  0  0  0  0  0  0  0  0  0  0  0
  -18.6186   11.3346   21.6790 C   0  0  0  0  0  0  0  0  0  0  0  0
  -18.4403   10.1447   21.3125 O   0  0  0  0  0  0  0  0  0  0  0  0
  -21.1878   13.2513   21.3327 H   0  0  0  0  0  0  0  0  0  0  0  0
  -19.4869   10.5774   25.1039 C   0  0  0  0  0  0  0  0  0  0  0  0
  -18.3973   10.8272   25.6806 O   0  0  0  0  0  0  0  0  0  0  0  0
  -19.7898   11.0608   23.8126 N   0  0  0  0  0  0  0  0  0  0  0  0
  -20.7419   10.7846   23.4269 H   0  0  0  0  0  0  0  0  0  0  0  0
  -23.6499   11.1512   25.9802 C   0  0  0  0  0  0  0  0  0  0  0  0
  -22.8007   10.1419   26.5458 N   0  0  0  0  0  0  0  0  0  0  0  0
  -21.4366   10.5054   26.6699 C   0  0  0  0  0  0  0  0  0  0  0  0
  -20.4715    9.7351   25.8442 C   0  0  0  0  0  0  0  0  0  0  0  0
  -21.1049    8.7058   24.9292 C   0  0  0  0  0  0  0  0  0  0  0  0
  -22.0014    7.9111   25.8276 C   0  0  0  0  0  0  0  0  0  0  0  0
  -23.1370    8.8139   26.2211 C   0  0  0  0  0  0  0  0  0  0  0  0
  -24.0037    8.1027   27.2547 C   0  0  0  0  0  0  0  0  0  0  0  0
  -24.5405    6.8657   26.6356 C   0  0  0  0  0  0  0  0  0  0  0  0
  -25.6765    6.0935   26.7603 C   0  0  0  0  0  0  0  0  0  0  0  0
  -25.5834    5.0460   25.8864 N   0  0  0  0  0  0  0  0  0  0  0  0
  -24.4243    5.1245   25.2074 C   0  0  0  0  0  0  0  0  0  0  0  0
  -23.7854    4.3919   24.2301 C   0  0  0  0  0  0  0  0  0  0  0  0
  -22.5371    4.7987   23.7496 C   0  0  0  0  0  0  0  0  0  0  0  0
  -21.9178    5.9467   24.2468 C   0  0  0  0  0  0  0  0  0  0  0  0
  -22.5601    6.6880   25.2333 C   0  0  0  0  0  0  0  0  0  0  0  0
  -23.7831    6.2463   25.6706 C   0  0  0  0  0  0  0  0  0  0  0  0
  -26.2830    4.2778   25.7357 H   0  0  0  0  0  0  0  0  0  0  0  0
  -19.1961   13.0279   18.4967 C   0  0  0  0  0  0  0  0  0  0  0  0
  -18.9733   12.0459   17.3790 C   0  0  0  0  0  0  0  0  0  0  0  0
  -19.9323   11.0519   17.2534 C   0  0  0  0  0  0  0  0  0  0  0  0
  -19.8205   10.0977   16.2558 C   0  0  0  0  0  0  0  0  0  0  0  0
  -18.7320   10.1647   15.3942 C   0  0  0  0  0  0  0  0  0  0  0  0
  -17.7916   11.1707   15.5470 C   0  0  0  0  0  0  0  0  0  0  0  0
  -17.8872   12.1312   16.5368 C   0  0  0  0  0  0  0  0  0  0  0  0
 22 23  1  0
 23 24  1  0
 24 25  1  0
 25 26  1  0
 26 27  1  0
 27 28  1  0
 28 29  1  0
 29 30  1  0
 30 31  2  0
 31 32  1  0
 32 33  1  0
 33 34  2  0
 34 35  1  0
 35 36  2  0
 36 37  1  0
 37 38  2  0
 25 18  1  0
 18 19  2  0
 18 20  1  0
  1 20  1  0
  1  2  1  0
  1  3  1  0
  3  4  1  0
  4  5  1  0
  4  6  1  0
  6  7  1  0
  7  8  1  0
  8  9  1  0
  9 10  1  0
 10 11  1  0
 11 12  2  0
 11 13  1  0
 13 40  1  0
 40 41  1  0
 41 42  2  0
 42 43  1  0
 43 44  2  0
 44 45  1  0
 45 46  2  0
 13 14  1  0
 14 15  1  0
 15 16  2  0
 28 23  1  0
 37 27  1  0
 38 30  1  0
 38 33  1  0
 15  1  1  0
 14  4  1  0
 10  6  1  0
 46 41  1  0
 32 39  1  0
 20 21  1  0
  5 17  1  0
M  END
> <minimizedAffinity>
-9.49753

> <CNNscore>
0.1605285555

> <CNNaffinity>
6.6843194962

> <CNN_VS>
1.0730241537

> <CNNaffinity_variance>
0.1212378964

$$$$



 46 53  0  0  0  0  0  0  0  0999 V2000
  -18.9551   13.1187   24.7574 C   0  0  0  0  0  0  0  0  0  0  0  0
  -17.8081   13.0228   25.7356 C   0  0  0  0  0  0  0  0  0  0  0  0
  -18.9153   11.9829   23.9758 O   0  0  0  0  0  0  0  0  0  0  0  0
  -19.8441   11.0740   24.4264 C   0  0  0  0  0  0  0  0  0  0  0  0
  -20.6404   10.7191   23.3371 O   0  0  0  0  0  0  0  0  0  0  0  0
  -19.1112    9.8441   24.8546 C   0  0  0  0  0  0  0  0  0  0  0  0
  -19.1932    8.7162   23.8223 C   0  0  0  0  0  0  0  0  0  0  0  0
  -18.8708    7.4883   24.6581 C   0  0  0  0  0  0  0  0  0  0  0  0
  -19.0049    7.8962   26.1091 C   0  0  0  0  0  0  0  0  0  0  0  0
  -19.6909    9.1706   26.0011 N   0  0  0  0  0  0  0  0  0  0  0  0
  -20.7255    9.7381   26.7960 C   0  0  0  0  0  0  0  0  0  0  0  0
  -20.9824    9.3109   27.9525 O   0  0  0  0  0  0  0  0  0  0  0  0
  -21.5176   10.8635   26.2384 C   0  0  0  0  0  0  0  0  0  0  0  0
  -20.6126   11.6793   25.4868 N   0  0  0  0  0  0  0  0  0  0  0  0
  -20.2347   13.0638   25.5120 C   0  0  0  0  0  0  0  0  0  0  0  0
  -20.8811   13.9896   26.0662 O   0  0  0  0  0  0  0  0  0  0  0  0
  -20.8003   11.5013   22.7492 H   0  0  0  0  0  0  0  0  0  0  0  0
  -19.4857   14.3998   22.6573 C   0  0  0  0  0  0  0  0  0  0  0  0
  -20.2182   13.4926   22.1851 O   0  0  0  0  0  0  0  0  0  0  0  0
  -18.8403   14.2797   23.9071 N   0  0  0  0  0  0  0  0  0  0  0  0
  -18.2464   15.1112   24.2026 H   0  0  0  0  0  0  0  0  0  0  0  0
  -17.1365   17.9397   23.2714 C   0  0  0  0  0  0  0  0  0  0  0  0
  -18.1498   17.7636   22.2704 N   0  0  0  0  0  0  0  0  0  0  0  0
  -19.2023   16.8852   22.6296 C   0  0  0  0  0  0  0  0  0  0  0  0
  -19.3166   15.6345   21.8364 C   0  0  0  0  0  0  0  0  0  0  0  0
  -18.2352   15.4497   20.7905 C   0  0  0  0  0  0  0  0  0  0  0  0
  -18.2393   16.7339   20.0204 C   0  0  0  0  0  0  0  0  0  0  0  0
  -17.6982   17.7950   20.9374 C   0  0  0  0  0  0  0  0  0  0  0  0
  -17.8177   19.1527   20.2534 C   0  0  0  0  0  0  0  0  0  0  0  0
  -17.0153   19.1142   19.0059 C   0  0  0  0  0  0  0  0  0  0  0  0
  -16.3048   20.0167   18.2424 C   0  0  0  0  0  0  0  0  0  0  0  0
  -15.7688   19.3504   17.1754 N   0  0  0  0  0  0  0  0  0  0  0  0
  -16.1141   18.0511   17.2331 C   0  0  0  0  0  0  0  0  0  0  0  0
  -15.8895   16.9214   16.4760 C   0  0  0  0  0  0  0  0  0  0  0  0
  -16.4339   15.6941   16.8658 C   0  0  0  0  0  0  0  0  0  0  0  0
  -17.2101   15.5897   18.0212 C   0  0  0  0  0  0  0  0  0  0  0  0
  -17.4387   16.7282   18.7874 C   0  0  0  0  0  0  0  0  0  0  0  0
  -16.8822   17.9077   18.3616 C   0  0  0  0  0  0  0  0  0  0  0  0
  -15.1747   19.7502   16.4077 H   0  0  0  0  0  0  0  0  0  0  0  0
  -22.6947   10.3675   25.4299 C   0  0  0  0  0  0  0  0  0  0  0  0
  -23.0149    9.0001   25.9691 C   0  0  0  0  0  0  0  0  0  0  0  0
  -23.7269    8.9757   27.1590 C   0  0  0  0  0  0  0  0  0  0  0  0
  -24.0725    7.7668   27.7396 C   0  0  0  0  0  0  0  0  0  0  0  0
  -23.6897    6.5925   27.1025 C   0  0  0  0  0  0  0  0  0  0  0  0
  -22.9789    6.6518   25.9145 C   0  0  0  0  0  0  0  0  0  0  0  0
  -22.6254    7.8493   25.3208 C   0  0  0  0  0  0  0  0  0  0  0  0
 22 23  1  0
 23 24  1  0
 24 25  1  0
 25 26  1  0
 26 27  1  0
 27 28  1  0
 28 29  1  0
 29 30  1  0
 30 31  2  0
 31 32  1  0
 32 33  1  0
 33 34  2  0
 34 35  1  0
 35 36  2  0
 36 37  1  0
 37 38  2  0
 25 18  1  0
 18 19  2  0
 18 20  1  0
  1 20  1  0
  1  2  1  0
  1  3  1  0
  3  4  1  0
  4  5  1  0
  4  6  1  0
  6  7  1  0
  7  8  1  0
  8  9  1  0
  9 10  1  0
 10 11  1  0
 11 12  2  0
 11 13  1  0
 13 40  1  0
 40 41  1  0
 41 42  2  0
 42 43  1  0
 43 44  2  0
 44 45  1  0
 45 46  2  0
 13 14  1  0
 14 15  1  0
 15 16  2  0
 28 23  1  0
 37 27  1  0
 38 30  1  0
 38 33  1  0
 15  1  1  0
 14  4  1  0
 10  6  1  0
 46 41  1  0
 32 39  1  0
 20 21  1  0
  5 17  1  0
M  END
> <minimizedAffinity>
-9.33927

> <CNNscore>
0.1375622153

> <CNNaffinity>
6.2176089287

> <CNN_VS>
0.8553080559

> <CNNaffinity_variance>
0.0557724759

$$$$



 46 53  0  0  0  0  0  0  0  0999 V2000
  -20.9915   12.0292   26.5130 C   0  0  0  0  0  0  0  0  0  0  0  0
  -19.9101   11.8433   27.5511 C   0  0  0  0  0  0  0  0  0  0  0  0
  -20.9102   10.9571   25.6488 O   0  0  0  0  0  0  0  0  0  0  0  0
  -21.8725   10.0275   25.9672 C   0  0  0  0  0  0  0  0  0  0  0  0
  -22.6002    9.7683   24.8053 O   0  0  0  0  0  0  0  0  0  0  0  0
  -21.1776    8.7591   26.3431 C   0  0  0  0  0  0  0  0  0  0  0  0
  -21.2018    7.7160   25.2224 C   0  0  0  0  0  0  0  0  0  0  0  0
  -20.9424    6.4229   25.9780 C   0  0  0  0  0  0  0  0  0  0  0  0
  -21.1660    6.7183   27.4451 C   0  0  0  0  0  0  0  0  0  0  0  0
  -21.8343    8.0056   27.3943 N   0  0  0  0  0  0  0  0  0  0  0  0
  -22.9133    8.5222   28.1644 C   0  0  0  0  0  0  0  0  0  0  0  0
  -23.2467    8.0096   29.2653 O   0  0  0  0  0  0  0  0  0  0  0  0
  -23.6599    9.6973   27.6479 C   0  0  0  0  0  0  0  0  0  0  0  0
  -22.7028   10.5579   27.0212 N   0  0  0  0  0  0  0  0  0  0  0  0
  -22.3170   11.9314   27.1788 C   0  0  0  0  0  0  0  0  0  0  0  0
  -22.9907   12.8192   27.7619 O   0  0  0  0  0  0  0  0  0  0  0  0
  -22.7165   10.5957   24.2717 H   0  0  0  0  0  0  0  0  0  0  0  0
  -20.4343   14.4780   26.3518 C   0  0  0  0  0  0  0  0  0  0  0  0
  -20.2196   14.5994   27.5853 O   0  0  0  0  0  0  0  0  0  0  0  0
  -20.8140   13.2513   25.7653 N   0  0  0  0  0  0  0  0  0  0  0  0
  -20.9682   13.2699   24.7130 H   0  0  0  0  0  0  0  0  0  0  0  0
  -18.1688   18.0761   26.9417 C   0  0  0  0  0  0  0  0  0  0  0  0
  -19.1562   17.8592   25.9230 N   0  0  0  0  0  0  0  0  0  0  0  0
  -20.1989   16.9675   26.2778 C   0  0  0  0  0  0  0  0  0  0  0  0
  -20.2713   15.6986   25.5089 C   0  0  0  0  0  0  0  0  0  0  0  0
  -19.1636   15.5139   24.4907 C   0  0  0  0  0  0  0  0  0  0  0  0
  -19.1759   16.7816   23.6938 C   0  0  0  0  0  0  0  0  0  0  0  0
  -18.6759   17.8720   24.5997 C   0  0  0  0  0  0  0  0  0  0  0  0
  -18.8068   19.2126   23.8848 C   0  0  0  0  0  0  0  0  0  0  0  0
  -17.9766   19.1644   22.6560 C   0  0  0  0  0  0  0  0  0  0  0  0
  -17.2671   20.0649   21.8892 C   0  0  0  0  0  0  0  0  0  0  0  0
  -16.6948   19.3875   20.8483 N   0  0  0  0  0  0  0  0  0  0  0  0
  -17.0159   18.0831   20.9260 C   0  0  0  0  0  0  0  0  0  0  0  0
  -16.7526   16.9426   20.1979 C   0  0  0  0  0  0  0  0  0  0  0  0
  -17.2814   15.7131   20.6016 C   0  0  0  0  0  0  0  0  0  0  0  0
  -18.0807   15.6171   21.7419 C   0  0  0  0  0  0  0  0  0  0  0  0
  -18.3483   16.7663   22.4788 C   0  0  0  0  0  0  0  0  0  0  0  0
  -17.8058   17.9477   22.0403 C   0  0  0  0  0  0  0  0  0  0  0  0
  -16.0918   19.7831   20.0853 H   0  0  0  0  0  0  0  0  0  0  0  0
  -24.7865    9.2803   26.7303 C   0  0  0  0  0  0  0  0  0  0  0  0
  -26.0569    9.6262   27.4581 C   0  0  0  0  0  0  0  0  0  0  0  0
  -25.9374   10.5879   28.4502 C   0  0  0  0  0  0  0  0  0  0  0  0
  -27.0479   10.9782   29.1798 C   0  0  0  0  0  0  0  0  0  0  0  0
  -28.2715   10.3851   28.8920 C   0  0  0  0  0  0  0  0  0  0  0  0
  -28.3566    9.4273   27.8944 C   0  0  0  0  0  0  0  0  0  0  0  0
  -27.2588    9.0256   27.1563 C   0  0  0  0  0  0  0  0  0  0  0  0
 22 23  1  0
 23 24  1  0
 24 25  1  0
 25 26  1  0
 26 27  1  0
 27 28  1  0
 28 29  1  0
 29 30  1  0
 30 31  2  0
 31 32  1  0
 32 33  1  0
 33 34  2  0
 34 35  1  0
 35 36  2  0
 36 37  1  0
 37 38  2  0
 25 18  1  0
 18 19  2  0
 18 20  1  0
  1 20  1  0
  1  2  1  0
  1  3  1  0
  3  4  1  0
  4  5  1  0
  4  6  1  0
  6  7  1  0
  7  8  1  0
  8  9  1  0
  9 10  1  0
 10 11  1  0
 11 12  2  0
 11 13  1  0
 13 40  1  0
 40 41  1  0
 41 42  2  0
 42 43  1  0
 43 44  2  0
 44 45  1  0
 45 46  2  0
 13 14  1  0
 14 15  1  0
 15 16  2  0
 28 23  1  0
 37 27  1  0
 38 30  1  0
 38 33  1  0
 15  1  1  0
 14  4  1  0
 10  6  1  0
 46 41  1  0
 32 39  1  0
 20 21  1  0
  5 17  1  0
M  END
> <minimizedAffinity>
-10.89999

> <CNNscore>
0.1289793402

> <CNNaffinity>
6.0749387741

> <CNN_VS>
0.7835416198

> <CNNaffinity_variance>
0.0784293935

$$$$



 46 53  0  0  0  0  0  0  0  0999 V2000
  -18.8625   13.1751   25.0734 C   0  0  0  0  0  0  0  0  0  0  0  0
  -17.6277   12.7566   25.8360 C   0  0  0  0  0  0  0  0  0  0  0  0
  -19.1290   14.4827   25.4228 O   0  0  0  0  0  0  0  0  0  0  0  0
  -18.6707   15.3303   24.4414 C   0  0  0  0  0  0  0  0  0  0  0  0
  -19.7375   16.1481   24.0673 O   0  0  0  0  0  0  0  0  0  0  0  0
  -17.6306   16.2147   25.0489 C   0  0  0  0  0  0  0  0  0  0  0  0
  -18.1572   17.6171   25.3659 C   0  0  0  0  0  0  0  0  0  0  0  0
  -16.8770   18.4319   25.4518 C   0  0  0  0  0  0  0  0  0  0  0  0
  -15.7810   17.5965   24.8267 C   0  0  0  0  0  0  0  0  0  0  0  0
  -16.5404   16.5577   24.1555 N   0  0  0  0  0  0  0  0  0  0  0  0
  -16.3457   15.9357   22.8908 C   0  0  0  0  0  0  0  0  0  0  0  0
  -15.2421   15.9940   22.2868 O   0  0  0  0  0  0  0  0  0  0  0  0
  -17.4794   15.2007   22.2751 C   0  0  0  0  0  0  0  0  0  0  0  0
  -18.1772   14.5426   23.3380 N   0  0  0  0  0  0  0  0  0  0  0  0
  -18.5483   13.1852   23.6205 C   0  0  0  0  0  0  0  0  0  0  0  0
  -18.5836   12.2462   22.7843 O   0  0  0  0  0  0  0  0  0  0  0  0
  -20.5888   15.6399   24.0738 H   0  0  0  0  0  0  0  0  0  0  0  0
  -19.9588   10.9476   25.4849 C   0  0  0  0  0  0  0  0  0  0  0  0
  -18.9079   10.2919   25.2653 O   0  0  0  0  0  0  0  0  0  0  0  0
  -20.0036   12.3565   25.4077 N   0  0  0  0  0  0  0  0  0  0  0  0
  -20.9477   12.8011   25.6140 H   0  0  0  0  0  0  0  0  0  0  0  0
  -23.1850   11.7773   28.1924 C   0  0  0  0  0  0  0  0  0  0  0  0
  -22.9317   10.5232   27.5420 N   0  0  0  0  0  0  0  0  0  0  0  0
  -21.5674   10.2526   27.2705 C   0  0  0  0  0  0  0  0  0  0  0  0
  -21.1840   10.1720   25.8376 C   0  0  0  0  0  0  0  0  0  0  0  0
  -22.3107   10.4615   24.8658 C   0  0  0  0  0  0  0  0  0  0  0  0
  -23.4257    9.5671   25.3121 C   0  0  0  0  0  0  0  0  0  0  0  0
  -23.9165   10.1039   26.6276 C   0  0  0  0  0  0  0  0  0  0  0  0
  -24.9546    9.1451   27.2007 C   0  0  0  0  0  0  0  0  0  0  0  0
  -26.0847    9.0608   26.2429 C   0  0  0  0  0  0  0  0  0  0  0  0
  -27.4445    8.8410   26.3132 C   0  0  0  0  0  0  0  0  0  0  0  0
  -27.9539    8.8838   25.0450 N   0  0  0  0  0  0  0  0  0  0  0  0
  -26.9630    9.1239   24.1669 C   0  0  0  0  0  0  0  0  0  0  0  0
  -26.8504    9.2734   22.8012 C   0  0  0  0  0  0  0  0  0  0  0  0
  -25.6032    9.5247   22.2219 C   0  0  0  0  0  0  0  0  0  0  0  0
  -24.4555    9.6283   23.0097 C   0  0  0  0  0  0  0  0  0  0  0  0
  -24.5659    9.4778   24.3883 C   0  0  0  0  0  0  0  0  0  0  0  0
  -25.8121    9.2325   24.9069 C   0  0  0  0  0  0  0  0  0  0  0  0
  -28.9549    8.7550   24.7557 H   0  0  0  0  0  0  0  0  0  0  0  0
  -18.3576   16.1189   21.4561 C   0  0  0  0  0  0  0  0  0  0  0  0
  -17.7939   16.0886   20.0617 C   0  0  0  0  0  0  0  0  0  0  0  0
  -17.4226   14.8378   19.5915 C   0  0  0  0  0  0  0  0  0  0  0  0
  -16.8926   14.7006   18.3194 C   0  0  0  0  0  0  0  0  0  0  0  0
  -16.7455   15.8396   17.5367 C   0  0  0  0  0  0  0  0  0  0  0  0
  -17.1264   17.0745   18.0366 C   0  0  0  0  0  0  0  0  0  0  0  0
  -17.6570   17.2301   19.3037 C   0  0  0  0  0  0  0  0  0  0  0  0
 22 23  1  0
 23 24  1  0
 24 25  1  0
 25 26  1  0
 26 27  1  0
 27 28  1  0
 28 29  1  0
 29 30  1  0
 30 31  2  0
 31 32  1  0
 32 33  1  0
 33 34  2  0
 34 35  1  0
 35 36  2  0
 36 37  1  0
 37 38  2  0
 25 18  1  0
 18 19  2  0
 18 20  1  0
  1 20  1  0
  1  2  1  0
  1  3  1  0
  3  4  1  0
  4  5  1  0
  4  6  1  0
  6  7  1  0
  7  8  1  0
  8  9  1  0
  9 10  1  0
 10 11  1  0
 11 12  2  0
 11 13  1  0
 13 40  1  0
 40 41  1  0
 41 42  2  0
 42 43  1  0
 43 44  2  0
 44 45  1  0
 45 46  2  0
 13 14  1  0
 14 15  1  0
 15 16  2  0
 28 23  1  0
 37 27  1  0
 38 30  1  0
 38 33  1  0
 15  1  1  0
 14  4  1  0
 10  6  1  0
 46 41  1  0
 32 39  1  0
 20 21  1  0
  5 17  1  0
M  END
> <minimizedAffinity>
-11.11198

> <CNNscore>
0.1176470593

> <CNNaffinity>
6.2752146721

> <CNN_VS>
0.7382605672

> <CNNaffinity_variance>
0.0843977779

$$$$



 46 53  0  0  0  0  0  0  0  0999 V2000
  -21.1233    9.6423   24.8145 C   0  0  0  0  0  0  0  0  0  0  0  0
  -20.0240    8.9904   25.6195 C   0  0  0  0  0  0  0  0  0  0  0  0
  -21.9114    8.6279   24.3118 O   0  0  0  0  0  0  0  0  0  0  0  0
  -23.0437    8.4925   25.0808 C   0  0  0  0  0  0  0  0  0  0  0  0
  -24.1406    8.5649   24.2215 O   0  0  0  0  0  0  0  0  0  0  0  0
  -23.0361    7.1189   25.6693 C   0  0  0  0  0  0  0  0  0  0  0  0
  -23.9781    6.1569   24.9400 C   0  0  0  0  0  0  0  0  0  0  0  0
  -24.1965    5.0684   25.9782 C   0  0  0  0  0  0  0  0  0  0  0  0
  -23.7227    5.6234   27.3038 C   0  0  0  0  0  0  0  0  0  0  0  0
  -23.5899    7.0379   27.0075 N   0  0  0  0  0  0  0  0  0  0  0  0
  -23.9052    8.1837   27.7898 C   0  0  0  0  0  0  0  0  0  0  0  0
  -24.0632    8.1112   29.0371 O   0  0  0  0  0  0  0  0  0  0  0  0
  -24.0494    9.4951   27.1085 C   0  0  0  0  0  0  0  0  0  0  0  0
  -23.0612    9.5391   26.0736 N   0  0  0  0  0  0  0  0  0  0  0  0
  -21.9879   10.4291   25.7327 C   0  0  0  0  0  0  0  0  0  0  0  0
  -21.8547   11.6089   26.1480 O   0  0  0  0  0  0  0  0  0  0  0  0
  -23.9788    9.2258   23.5004 H   0  0  0  0  0  0  0  0  0  0  0  0
  -21.3122   10.6716   22.5258 C   0  0  0  0  0  0  0  0  0  0  0  0
  -22.4755   10.2347   22.3301 O   0  0  0  0  0  0  0  0  0  0  0  0
  -20.5974   10.4181   23.7165 N   0  0  0  0  0  0  0  0  0  0  0  0
  -19.6218   10.8390   23.7687 H   0  0  0  0  0  0  0  0  0  0  0  0
  -17.2844   12.0091   21.8819 C   0  0  0  0  0  0  0  0  0  0  0  0
  -18.4436   12.4456   21.1571 N   0  0  0  0  0  0  0  0  0  0  0  0
  -19.6529   12.4346   21.8958 C   0  0  0  0  0  0  0  0  0  0  0  0
  -20.6978   11.4844   21.4356 C   0  0  0  0  0  0  0  0  0  0  0  0
  -20.2845   10.6085   20.2695 C   0  0  0  0  0  0  0  0  0  0  0  0
  -19.7581   11.5706   19.2499 C   0  0  0  0  0  0  0  0  0  0  0  0
  -18.4645   12.1142   19.7890 C   0  0  0  0  0  0  0  0  0  0  0  0
  -17.9581   13.2102   18.8576 C   0  0  0  0  0  0  0  0  0  0  0  0
  -17.7290   12.6108   17.5197 C   0  0  0  0  0  0  0  0  0  0  0  0
  -16.8811   12.8307   16.4543 C   0  0  0  0  0  0  0  0  0  0  0  0
  -17.1693   11.9168   15.4788 N   0  0  0  0  0  0  0  0  0  0  0  0
  -18.1740   11.1203   15.8872 C   0  0  0  0  0  0  0  0  0  0  0  0
  -18.8805   10.0557   15.3699 C   0  0  0  0  0  0  0  0  0  0  0  0
  -19.8991    9.4579   16.1180 C   0  0  0  0  0  0  0  0  0  0  0  0
  -20.2183    9.9243   17.3943 C   0  0  0  0  0  0  0  0  0  0  0  0
  -19.5071   10.9987   17.9191 C   0  0  0  0  0  0  0  0  0  0  0  0
  -18.5175   11.5496   17.1449 C   0  0  0  0  0  0  0  0  0  0  0  0
  -16.7047   11.8162   14.5427 H   0  0  0  0  0  0  0  0  0  0  0  0
  -25.4588    9.7076   26.6048 C   0  0  0  0  0  0  0  0  0  0  0  0
  -26.1066   10.6475   27.5846 C   0  0  0  0  0  0  0  0  0  0  0  0
  -27.3991   10.3199   27.9660 C   0  0  0  0  0  0  0  0  0  0  0  0
  -28.0846   11.1203   28.8645 C   0  0  0  0  0  0  0  0  0  0  0  0
  -27.4470   12.2483   29.3672 C   0  0  0  0  0  0  0  0  0  0  0  0
  -26.1550   12.5473   28.9656 C   0  0  0  0  0  0  0  0  0  0  0  0
  -25.4557   11.7599   28.0699 C   0  0  0  0  0  0  0  0  0  0  0  0
 22 23  1  0
 23 24  1  0
 24 25  1  0
 25 26  1  0
 26 27  1  0
 27 28  1  0
 28 29  1  0
 29 30  1  0
 30 31  2  0
 31 32  1  0
 32 33  1  0
 33 34  2  0
 34 35  1  0
 35 36  2  0
 36 37  1  0
 37 38  2  0
 25 18  1  0
 18 19  2  0
 18 20  1  0
  1 20  1  0
  1  2  1  0
  1  3  1  0
  3  4  1  0
  4  5  1  0
  4  6  1  0
  6  7  1  0
  7  8  1  0
  8  9  1  0
  9 10  1  0
 10 11  1  0
 11 12  2  0
 11 13  1  0
 13 40  1  0
 40 41  1  0
 41 42  2  0
 42 43  1  0
 43 44  2  0
 44 45  1  0
 45 46  2  0
 13 14  1  0
 14 15  1  0
 15 16  2  0
 28 23  1  0
 37 27  1  0
 38 30  1  0
 38 33  1  0
 15  1  1  0
 14  4  1  0
 10  6  1  0
 46 41  1  0
 32 39  1  0
 20 21  1  0
  5 17  1  0
M  END
> <minimizedAffinity>
-13.41313

> <CNNscore>
0.1122187674

> <CNNaffinity>
6.8016128540

> <CNN_VS>
0.7632685900

> <CNNaffinity_variance>
0.1111230478

$$$$



 46 53  0  0  0  0  0  0  0  0999 V2000
  -21.0905   10.5212   22.6535 C   0  0  0  0  0  0  0  0  0  0  0  0
  -19.9824   10.1607   23.6145 C   0  0  0  0  0  0  0  0  0  0  0  0
  -21.0884   11.8952   22.5319 O   0  0  0  0  0  0  0  0  0  0  0  0
  -20.4477   12.2595   21.3706 C   0  0  0  0  0  0  0  0  0  0  0  0
  -21.3163   13.0879   20.6592 O   0  0  0  0  0  0  0  0  0  0  0  0
  -19.2589   13.0849   21.7427 C   0  0  0  0  0  0  0  0  0  0  0  0
  -19.4911   14.5844   21.5371 C   0  0  0  0  0  0  0  0  0  0  0  0
  -18.0723   15.1244   21.4619 C   0  0  0  0  0  0  0  0  0  0  0  0
  -17.1607   13.9369   21.2413 C   0  0  0  0  0  0  0  0  0  0  0  0
  -18.1055   12.8948   20.8838 N   0  0  0  0  0  0  0  0  0  0  0  0
  -18.0202   11.8575   19.9138 C   0  0  0  0  0  0  0  0  0  0  0  0
  -16.9176   11.5000   19.4214 O   0  0  0  0  0  0  0  0  0  0  0  0
  -19.2697   11.1847   19.4769 C   0  0  0  0  0  0  0  0  0  0  0  0
  -20.1071   11.0677   20.6323 N   0  0  0  0  0  0  0  0  0  0  0  0
  -20.7548    9.9808   21.3100 C   0  0  0  0  0  0  0  0  0  0  0  0
  -20.9676    8.8391   20.8271 O   0  0  0  0  0  0  0  0  0  0  0  0
  -22.2539   12.7813   20.7581 H   0  0  0  0  0  0  0  0  0  0  0  0
  -22.7477   10.1036   24.5009 C   0  0  0  0  0  0  0  0  0  0  0  0
  -21.9663   10.4910   25.4074 O   0  0  0  0  0  0  0  0  0  0  0  0
  -22.3817   10.0934   23.1374 N   0  0  0  0  0  0  0  0  0  0  0  0
  -23.1254    9.7447   22.4616 H   0  0  0  0  0  0  0  0  0  0  0  0
  -24.0113    6.9685   27.1468 C   0  0  0  0  0  0  0  0  0  0  0  0
  -24.8577    7.7169   26.2618 N   0  0  0  0  0  0  0  0  0  0  0  0
  -24.2315    8.1731   25.0752 C   0  0  0  0  0  0  0  0  0  0  0  0
  -24.1041    9.6450   24.9212 C   0  0  0  0  0  0  0  0  0  0  0  0
  -24.6094   10.4490   26.1028 C   0  0  0  0  0  0  0  0  0  0  0  0
  -25.9873    9.9184   26.3517 C   0  0  0  0  0  0  0  0  0  0  0  0
  -25.8280    8.5228   26.8870 C   0  0  0  0  0  0  0  0  0  0  0  0
  -27.2044    7.8800   27.0196 C   0  0  0  0  0  0  0  0  0  0  0  0
  -28.0040    8.6913   27.9704 C   0  0  0  0  0  0  0  0  0  0  0  0
  -29.0181    8.4633   28.8770 C   0  0  0  0  0  0  0  0  0  0  0  0
  -29.3431    9.6527   29.4680 N   0  0  0  0  0  0  0  0  0  0  0  0
  -28.5688   10.6332   28.9680 C   0  0  0  0  0  0  0  0  0  0  0  0
  -28.4272   11.9912   29.1570 C   0  0  0  0  0  0  0  0  0  0  0  0
  -27.4752   12.7073   28.4254 C   0  0  0  0  0  0  0  0  0  0  0  0
  -26.6552   12.0655   27.4958 C   0  0  0  0  0  0  0  0  0  0  0  0
  -26.7959   10.6950   27.3027 C   0  0  0  0  0  0  0  0  0  0  0  0
  -27.7446   10.0388   28.0453 C   0  0  0  0  0  0  0  0  0  0  0  0
  -30.0751    9.8207   30.2016 H   0  0  0  0  0  0  0  0  0  0  0  0
  -19.9251   11.9201   18.3302 C   0  0  0  0  0  0  0  0  0  0  0  0
  -19.2700   11.3975   17.0808 C   0  0  0  0  0  0  0  0  0  0  0  0
  -18.1098   12.0511   16.6932 C   0  0  0  0  0  0  0  0  0  0  0  0
  -17.4292   11.6474   15.5566 C   0  0  0  0  0  0  0  0  0  0  0  0
  -17.9366   10.5807   14.8244 C   0  0  0  0  0  0  0  0  0  0  0  0
  -19.0983    9.9494   15.2391 C   0  0  0  0  0  0  0  0  0  0  0  0
  -19.7906   10.3388   16.3707 C   0  0  0  0  0  0  0  0  0  0  0  0
 22 23  1  0
 23 24  1  0
 24 25  1  0
 25 26  1  0
 26 27  1  0
 27 28  1  0
 28 29  1  0
 29 30  1  0
 30 31  2  0
 31 32  1  0
 32 33  1  0
 33 34  2  0
 34 35  1  0
 35 36  2  0
 36 37  1  0
 37 38  2  0
 25 18  1  0
 18 19  2  0
 18 20  1  0
  1 20  1  0
  1  2  1  0
  1  3  1  0
  3  4  1  0
  4  5  1  0
  4  6  1  0
  6  7  1  0
  7  8  1  0
  8  9  1  0
  9 10  1  0
 10 11  1  0
 11 12  2  0
 11 13  1  0
 13 40  1  0
 40 41  1  0
 41 42  2  0
 42 43  1  0
 43 44  2  0
 44 45  1  0
 45 46  2  0
 13 14  1  0
 14 15  1  0
 15 16  2  0
 28 23  1  0
 37 27  1  0
 38 30  1  0
 38 33  1  0
 15  1  1  0
 14  4  1  0
 10  6  1  0
 46 41  1  0
 32 39  1  0
 20 21  1  0
  5 17  1  0
M  END
> <minimizedAffinity>
-10.85431

> <CNNscore>
0.1054332554

> <CNNaffinity>
6.3519172668

> <CNN_VS>
0.6697033048

> <CNNaffinity_variance>
0.0658193231

$$$$



 46 53  0  0  0  0  0  0  0  0999 V2000
  -18.7326   12.9502   24.9521 C   0  0  0  0  0  0  0  0  0  0  0  0
  -17.8017   12.9299   26.1415 C   0  0  0  0  0  0  0  0  0  0  0  0
  -19.6305   13.9766   25.1597 O   0  0  0  0  0  0  0  0  0  0  0  0
  -19.2532   15.0806   24.4314 C   0  0  0  0  0  0  0  0  0  0  0  0
  -20.3518   15.4665   23.6627 O   0  0  0  0  0  0  0  0  0  0  0  0
  -18.9772   16.1911   25.3926 C   0  0  0  0  0  0  0  0  0  0  0  0
  -20.1202   17.2073   25.4675 C   0  0  0  0  0  0  0  0  0  0  0  0
  -19.4277   18.4315   26.0438 C   0  0  0  0  0  0  0  0  0  0  0  0
  -17.9386   18.2005   25.9054 C   0  0  0  0  0  0  0  0  0  0  0  0
  -17.8928   17.0695   24.9970 N   0  0  0  0  0  0  0  0  0  0  0  0
  -17.0146   16.7832   23.9149 C   0  0  0  0  0  0  0  0  0  0  0  0
  -15.9031   17.3624   23.7926 O   0  0  0  0  0  0  0  0  0  0  0  0
  -17.4285   15.7730   22.9083 C   0  0  0  0  0  0  0  0  0  0  0  0
  -18.1143   14.7346   23.6161 N   0  0  0  0  0  0  0  0  0  0  0  0
  -17.9534   13.3137   23.7395 C   0  0  0  0  0  0  0  0  0  0  0  0
  -17.2873   12.5817   22.9632 O   0  0  0  0  0  0  0  0  0  0  0  0
  -20.8493   14.6728   23.3377 H   0  0  0  0  0  0  0  0  0  0  0  0
  -20.4217   11.4736   23.8121 C   0  0  0  0  0  0  0  0  0  0  0  0
  -20.7233   12.3374   22.9488 O   0  0  0  0  0  0  0  0  0  0  0  0
  -19.4585   11.7097   24.8169 N   0  0  0  0  0  0  0  0  0  0  0  0
  -19.2870   10.9052   25.4913 H   0  0  0  0  0  0  0  0  0  0  0  0
  -19.5162    7.6389   25.5158 C   0  0  0  0  0  0  0  0  0  0  0  0
  -20.5182    7.9050   24.5233 N   0  0  0  0  0  0  0  0  0  0  0  0
  -20.2285    8.9844   23.6521 C   0  0  0  0  0  0  0  0  0  0  0  0
  -21.1298   10.1620   23.7392 C   0  0  0  0  0  0  0  0  0  0  0  0
  -22.1994   10.0600   24.8084 C   0  0  0  0  0  0  0  0  0  0  0  0
  -22.8508    8.7351   24.5577 C   0  0  0  0  0  0  0  0  0  0  0  0
  -21.8477    7.6783   24.9272 C   0  0  0  0  0  0  0  0  0  0  0  0
  -22.4054    6.3094   24.5522 C   0  0  0  0  0  0  0  0  0  0  0  0
  -23.6597    6.0962   25.3157 C   0  0  0  0  0  0  0  0  0  0  0  0
  -24.3462    5.0189   25.8356 C   0  0  0  0  0  0  0  0  0  0  0  0
  -25.4744    5.4841   26.4524 N   0  0  0  0  0  0  0  0  0  0  0  0
  -25.5303    6.8241   26.3432 C   0  0  0  0  0  0  0  0  0  0  0  0
  -26.3883    7.8259   26.7435 C   0  0  0  0  0  0  0  0  0  0  0  0
  -26.1049    9.1595   26.4345 C   0  0  0  0  0  0  0  0  0  0  0  0
  -24.9555    9.5002   25.7195 C   0  0  0  0  0  0  0  0  0  0  0  0
  -24.0876    8.4914   25.3140 C   0  0  0  0  0  0  0  0  0  0  0  0
  -24.4113    7.1993   25.6424 C   0  0  0  0  0  0  0  0  0  0  0  0
  -26.2093    4.9199   26.9464 H   0  0  0  0  0  0  0  0  0  0  0  0
  -18.2525   16.3945   21.8038 C   0  0  0  0  0  0  0  0  0  0  0  0
  -18.0886   15.4907   20.6124 C   0  0  0  0  0  0  0  0  0  0  0  0
  -19.2656   15.0248   20.0460 C   0  0  0  0  0  0  0  0  0  0  0  0
  -19.2248   14.1863   18.9446 C   0  0  0  0  0  0  0  0  0  0  0  0
  -17.9844   13.8296   18.4292 C   0  0  0  0  0  0  0  0  0  0  0  0
  -16.8272   14.3127   19.0188 C   0  0  0  0  0  0  0  0  0  0  0  0
  -16.8490   15.1503   20.1184 C   0  0  0  0  0  0  0  0  0  0  0  0
 22 23  1  0
 23 24  1  0
 24 25  1  0
 25 26  1  0
 26 27  1  0
 27 28  1  0
 28 29  1  0
 29 30  1  0
 30 31  2  0
 31 32  1  0
 32 33  1  0
 33 34  2  0
 34 35  1  0
 35 36  2  0
 36 37  1  0
 37 38  2  0
 25 18  1  0
 18 19  2  0
 18 20  1  0
  1 20  1  0
  1  2  1  0
  1  3  1  0
  3  4  1  0
  4  5  1  0
  4  6  1  0
  6  7  1  0
  7  8  1  0
  8  9  1  0
  9 10  1  0
 10 11  1  0
 11 12  2  0
 11 13  1  0
 13 40  1  0
 40 41  1  0
 41 42  2  0
 42 43  1  0
 43 44  2  0
 44 45  1  0
 45 46  2  0
 13 14  1  0
 14 15  1  0
 15 16  2  0
 28 23  1  0
 37 27  1  0
 38 30  1  0
 38 33  1  0
 15  1  1  0
 14  4  1  0
 10  6  1  0
 46 41  1  0
 32 39  1  0
 20 21  1  0
  5 17  1  0
M  END
> <minimizedAffinity>
-11.37687

> <CNNscore>
0.1052460968

> <CNNaffinity>
6.6006650925

> <CNN_VS>
0.6946942210

> <CNNaffinity_variance>
0.1128774285

$$$$
