


 46 53  0  0  0  0  0  0  0  0999 V2000
  -21.0947   12.6221   19.9273 C   0  0  0  0  0  0  0  0  0  0  0  0
  -21.6398   13.3950   18.7496 C   0  0  0  0  0  0  0  0  0  0  0  0
  -19.7948   12.2793   19.6186 O   0  0  0  0  0  0  0  0  0  0  0  0
  -18.9244   13.1444   20.2399 C   0  0  0  0  0  0  0  0  0  0  0  0
  -18.0158   12.3712   20.9632 O   0  0  0  0  0  0  0  0  0  0  0  0
  -18.1495   13.8554   19.1783 C   0  0  0  0  0  0  0  0  0  0  0  0
  -16.7354   13.2951   19.0015 C   0  0  0  0  0  0  0  0  0  0  0  0
  -16.0156   14.4438   18.3140 C   0  0  0  0  0  0  0  0  0  0  0  0
  -16.8855   15.6707   18.4805 C   0  0  0  0  0  0  0  0  0  0  0  0
  -17.8296   15.2348   19.4930 N   0  0  0  0  0  0  0  0  0  0  0  0
  -18.3886   15.9298   20.6015 C   0  0  0  0  0  0  0  0  0  0  0  0
  -18.3702   17.1870   20.6729 O   0  0  0  0  0  0  0  0  0  0  0  0
  -19.0079   15.1431   21.6981 C   0  0  0  0  0  0  0  0  0  0  0  0
  -19.6781   14.0340   21.0896 N   0  0  0  0  0  0  0  0  0  0  0  0
  -21.0214   13.5285   21.1032 C   0  0  0  0  0  0  0  0  0  0  0  0
  -21.9055   13.8207   21.9489 O   0  0  0  0  0  0  0  0  0  0  0  0
  -18.4646   11.5813   21.3603 H   0  0  0  0  0  0  0  0  0  0  0  0
  -21.4773   10.4421   21.1250 C   0  0  0  0  0  0  0  0  0  0  0  0
  -20.4419   10.5485   21.8315 O   0  0  0  0  0  0  0  0  0  0  0  0
  -21.8523   11.4188   20.1772 N   0  0  0  0  0  0  0  0  0  0  0  0
  -22.7478   11.2205   19.6384 H   0  0  0  0  0  0  0  0  0  0  0  0
  -20.7016    6.2863   20.3798 C   0  0  0  0  0  0  0  0  0  0  0  0
  -21.9762    6.8611   20.7037 N   0  0  0  0  0  0  0  0  0  0  0  0
  -22.1623    8.1953   20.2638 C   0  0  0  0  0  0  0  0  0  0  0  0
  -22.3155    9.2237   21.3247 C   0  0  0  0  0  0  0  0  0  0  0  0
  -22.1813    8.6957   22.7393 C   0  0  0  0  0  0  0  0  0  0  0  0
  -23.1229    7.5326   22.7930 C   0  0  0  0  0  0  0  0  0  0  0  0
  -22.5322    6.4522   21.9306 C   0  0  0  0  0  0  0  0  0  0  0  0
  -23.5230    5.2973   21.8306 C   0  0  0  0  0  0  0  0  0  0  0  0
  -23.7598    4.7715   23.1977 C   0  0  0  0  0  0  0  0  0  0  0  0
  -24.0754    3.5536   23.7629 C   0  0  0  0  0  0  0  0  0  0  0  0
  -24.1613    3.7168   25.1178 N   0  0  0  0  0  0  0  0  0  0  0  0
  -23.9105    5.0000   25.4360 C   0  0  0  0  0  0  0  0  0  0  0  0
  -23.8505    5.7515   26.5900 C   0  0  0  0  0  0  0  0  0  0  0  0
  -23.5481    7.1149   26.5262 C   0  0  0  0  0  0  0  0  0  0  0  0
  -23.3029    7.7374   25.3011 C   0  0  0  0  0  0  0  0  0  0  0  0
  -23.3629    6.9817   24.1347 C   0  0  0  0  0  0  0  0  0  0  0  0
  -23.6635    5.6482   24.2516 C   0  0  0  0  0  0  0  0  0  0  0  0
  -24.3851    2.9835   25.8350 H   0  0  0  0  0  0  0  0  0  0  0  0
  -17.9861   14.7345   22.7344 C   0  0  0  0  0  0  0  0  0  0  0  0
  -17.5510   16.0088   23.4053 C   0  0  0  0  0  0  0  0  0  0  0  0
  -18.4747   16.5779   24.2693 C   0  0  0  0  0  0  0  0  0  0  0  0
  -18.1721   17.7524   24.9377 C   0  0  0  0  0  0  0  0  0  0  0  0
  -16.9303   18.3374   24.7202 C   0  0  0  0  0  0  0  0  0  0  0  0
  -16.0302   17.7430   23.8504 C   0  0  0  0  0  0  0  0  0  0  0  0
  -16.3153   16.5710   23.1748 C   0  0  0  0  0  0  0  0  0  0  0  0
 22 23  1  0
 23 24  1  0
 24 25  1  0
 25 26  1  0
 26 27  1  0
 27 28  1  0
 28 29  1  0
 29 30  1  0
 30 31  2  0
 31 32  1  0
 32 33  1  0
 33 34  2  0
 34 35  1  0
 35 36  2  0
 36 37  1  0
 37 38  2  0
 25 18  1  0
 18 19  2  0
 18 20  1  0
  1 20  1  0
  1  2  1  0
  1  3  1  0
  3  4  1  0
  4  5  1  0
  4  6  1  0
  6  7  1  0
  7  8  1  0
  8  9  1  0
  9 10  1  0
 10 11  1  0
 11 12  2  0
 11 13  1  0
 13 40  1  0
 40 41  1  0
 41 42  2  0
 42 43  1  0
 43 44  2  0
 44 45  1  0
 45 46  2  0
 13 14  1  0
 14 15  1  0
 15 16  2  0
 28 23  1  0
 37 27  1  0
 38 30  1  0
 38 33  1  0
 15  1  1  0
 14  4  1  0
 10  6  1  0
 46 41  1  0
 32 39  1  0
 20 21  1  0
  5 17  1  0
M  END
> <minimizedAffinity>
-11.76920

> <CNNscore>
0.7909393311

> <CNNaffinity>
8.2854166031

> <CNN_VS>
6.5532617569

> <CNNaffinity_variance>
0.1951053292

$$$$



 46 53  0  0  0  0  0  0  0  0999 V2000
  -20.9215   12.0577   19.3567 C   0  0  0  0  0  0  0  0  0  0  0  0
  -21.2688   12.6646   18.0178 C   0  0  0  0  0  0  0  0  0  0  0  0
  -19.5589   11.8431   19.3614 O   0  0  0  0  0  0  0  0  0  0  0  0
  -18.9308   12.8503   20.0564 C   0  0  0  0  0  0  0  0  0  0  0  0
  -18.1315   12.2481   21.0287 O   0  0  0  0  0  0  0  0  0  0  0  0
  -18.0151   13.5575   19.1106 C   0  0  0  0  0  0  0  0  0  0  0  0
  -16.5497   13.1514   19.2900 C   0  0  0  0  0  0  0  0  0  0  0  0
  -15.8105   14.3159   18.6512 C   0  0  0  0  0  0  0  0  0  0  0  0
  -16.8087   15.4437   18.5055 C   0  0  0  0  0  0  0  0  0  0  0  0
  -17.9043   14.9855   19.3399 N   0  0  0  0  0  0  0  0  0  0  0  0
  -18.7543   15.6990   20.2302 C   0  0  0  0  0  0  0  0  0  0  0  0
  -18.8717   16.9515   20.1730 O   0  0  0  0  0  0  0  0  0  0  0  0
  -19.5192   14.9377   21.2501 C   0  0  0  0  0  0  0  0  0  0  0  0
  -19.9323   13.7130   20.6344 N   0  0  0  0  0  0  0  0  0  0  0  0
  -21.1921   13.0589   20.4216 C   0  0  0  0  0  0  0  0  0  0  0  0
  -22.2624   13.3148   21.0306 O   0  0  0  0  0  0  0  0  0  0  0  0
  -18.5785   11.4466   21.4039 H   0  0  0  0  0  0  0  0  0  0  0  0
  -21.4207   10.0012   20.7186 C   0  0  0  0  0  0  0  0  0  0  0  0
  -20.6521   10.3308   21.6583 O   0  0  0  0  0  0  0  0  0  0  0  0
  -21.5970   10.7993   19.5676 N   0  0  0  0  0  0  0  0  0  0  0  0
  -22.2724   10.4182   18.8395 H   0  0  0  0  0  0  0  0  0  0  0  0
  -20.1152    5.9209   20.4468 C   0  0  0  0  0  0  0  0  0  0  0  0
  -21.4780    6.3684   20.4959 N   0  0  0  0  0  0  0  0  0  0  0  0
  -21.7112    7.6456   19.9277 C   0  0  0  0  0  0  0  0  0  0  0  0
  -22.1569    8.7111   20.8619 C   0  0  0  0  0  0  0  0  0  0  0  0
  -22.2325    8.2852   22.3147 C   0  0  0  0  0  0  0  0  0  0  0  0
  -23.0484    7.0298   22.2923 C   0  0  0  0  0  0  0  0  0  0  0  0
  -22.2061    5.9730   21.6340 C   0  0  0  0  0  0  0  0  0  0  0  0
  -23.0429    4.7113   21.4514 C   0  0  0  0  0  0  0  0  0  0  0  0
  -23.4729    4.2436   22.7923 C   0  0  0  0  0  0  0  0  0  0  0  0
  -23.7648    3.0335   23.3862 C   0  0  0  0  0  0  0  0  0  0  0  0
  -24.1131    3.2654   24.6880 N   0  0  0  0  0  0  0  0  0  0  0  0
  -24.0527    4.5850   24.9446 C   0  0  0  0  0  0  0  0  0  0  0  0
  -24.2795    5.4050   26.0291 C   0  0  0  0  0  0  0  0  0  0  0  0
  -24.1067    6.7874   25.9136 C   0  0  0  0  0  0  0  0  0  0  0  0
  -23.7040    7.3603   24.7061 C   0  0  0  0  0  0  0  0  0  0  0  0
  -23.4745    6.5354   23.6096 C   0  0  0  0  0  0  0  0  0  0  0  0
  -23.6583    5.1859   23.7752 C   0  0  0  0  0  0  0  0  0  0  0  0
  -24.3908    2.5551   25.4095 H   0  0  0  0  0  0  0  0  0  0  0  0
  -18.7127   14.7349   22.5125 C   0  0  0  0  0  0  0  0  0  0  0  0
  -19.6286   14.0287   23.4746 C   0  0  0  0  0  0  0  0  0  0  0  0
  -20.7945   14.7056   23.8000 C   0  0  0  0  0  0  0  0  0  0  0  0
  -21.7057   14.1419   24.6775 C   0  0  0  0  0  0  0  0  0  0  0  0
  -21.4212   12.8927   25.2161 C   0  0  0  0  0  0  0  0  0  0  0  0
  -20.2471   12.2431   24.8702 C   0  0  0  0  0  0  0  0  0  0  0  0
  -19.3264   12.7906   23.9962 C   0  0  0  0  0  0  0  0  0  0  0  0
 22 23  1  0
 23 24  1  0
 24 25  1  0
 25 26  1  0
 26 27  1  0
 27 28  1  0
 28 29  1  0
 29 30  1  0
 30 31  2  0
 31 32  1  0
 32 33  1  0
 33 34  2  0
 34 35  1  0
 35 36  2  0
 36 37  1  0
 37 38  2  0
 25 18  1  0
 18 19  2  0
 18 20  1  0
  1 20  1  0
  1  2  1  0
  1  3  1  0
  3  4  1  0
  4  5  1  0
  4  6  1  0
  6  7  1  0
  7  8  1  0
  8  9  1  0
  9 10  1  0
 10 11  1  0
 11 12  2  0
 11 13  1  0
 13 40  1  0
 40 41  1  0
 41 42  2  0
 42 43  1  0
 43 44  2  0
 44 45  1  0
 45 46  2  0
 13 14  1  0
 14 15  1  0
 15 16  2  0
 28 23  1  0
 37 27  1  0
 38 30  1  0
 38 33  1  0
 15  1  1  0
 14  4  1  0
 10  6  1  0
 46 41  1  0
 32 39  1  0
 20 21  1  0
  5 17  1  0
M  END
> <minimizedAffinity>
-10.76340

> <CNNscore>
0.7889537215

> <CNNaffinity>
8.3340358734

> <CNN_VS>
6.5751686096

> <CNNaffinity_variance>
0.2089296132

$$$$



 46 53  0  0  0  0  0  0  0  0999 V2000
  -21.7320   11.6534   19.1136 C   0  0  0  0  0  0  0  0  0  0  0  0
  -22.7934   12.1263   18.1486 C   0  0  0  0  0  0  0  0  0  0  0  0
  -20.9224   10.7745   18.4245 O   0  0  0  0  0  0  0  0  0  0  0  0
  -19.7710   11.4141   18.0283 C   0  0  0  0  0  0  0  0  0  0  0  0
  -18.6947   10.6541   18.4874 O   0  0  0  0  0  0  0  0  0  0  0  0
  -19.7228   11.3876   16.5350 C   0  0  0  0  0  0  0  0  0  0  0  0
  -18.7656   10.3228   15.9921 C   0  0  0  0  0  0  0  0  0  0  0  0
  -18.4916   10.8220   14.5829 C   0  0  0  0  0  0  0  0  0  0  0  0
  -18.9558   12.2612   14.5280 C   0  0  0  0  0  0  0  0  0  0  0  0
  -19.1395   12.5718   15.9338 N   0  0  0  0  0  0  0  0  0  0  0  0
  -18.8451   13.7534   16.6694 C   0  0  0  0  0  0  0  0  0  0  0  0
  -18.6594   14.8604   16.0983 O   0  0  0  0  0  0  0  0  0  0  0  0
  -18.7566   13.6691   18.1492 C   0  0  0  0  0  0  0  0  0  0  0  0
  -19.7666   12.7487   18.5764 N   0  0  0  0  0  0  0  0  0  0  0  0
  -20.8744   12.8087   19.4870 C   0  0  0  0  0  0  0  0  0  0  0  0
  -21.0367   13.6720   20.3873 O   0  0  0  0  0  0  0  0  0  0  0  0
  -18.8921   10.2683   19.3792 H   0  0  0  0  0  0  0  0  0  0  0  0
  -22.4088    9.5687   20.3503 C   0  0  0  0  0  0  0  0  0  0  0  0
  -22.0054    8.7954   19.4438 O   0  0  0  0  0  0  0  0  0  0  0  0
  -22.3046   10.9731   20.2509 N   0  0  0  0  0  0  0  0  0  0  0  0
  -22.6798   11.5244   21.0797 H   0  0  0  0  0  0  0  0  0  0  0  0
  -22.0612    5.6203   21.9986 C   0  0  0  0  0  0  0  0  0  0  0  0
  -23.0043    6.6233   22.4044 N   0  0  0  0  0  0  0  0  0  0  0  0
  -23.4052    7.5190   21.3821 C   0  0  0  0  0  0  0  0  0  0  0  0
  -23.0143    8.9409   21.5611 C   0  0  0  0  0  0  0  0  0  0  0  0
  -22.1757    9.2143   22.7939 C   0  0  0  0  0  0  0  0  0  0  0  0
  -22.9449    8.5851   23.9140 C   0  0  0  0  0  0  0  0  0  0  0  0
  -22.8574    7.0967   23.7221 C   0  0  0  0  0  0  0  0  0  0  0  0
  -23.7470    6.4086   24.7518 C   0  0  0  0  0  0  0  0  0  0  0  0
  -23.2524    6.7677   26.1039 C   0  0  0  0  0  0  0  0  0  0  0  0
  -23.2223    6.1774   27.3501 C   0  0  0  0  0  0  0  0  0  0  0  0
  -22.6130    7.0387   28.2200 N   0  0  0  0  0  0  0  0  0  0  0  0
  -22.2529    8.1601   27.5692 C   0  0  0  0  0  0  0  0  0  0  0  0
  -21.6272    9.3458   27.8894 C   0  0  0  0  0  0  0  0  0  0  0  0
  -21.4170   10.3176   26.9066 C   0  0  0  0  0  0  0  0  0  0  0  0
  -21.8338   10.1075   25.5911 C   0  0  0  0  0  0  0  0  0  0  0  0
  -22.4657    8.9118   25.2649 C   0  0  0  0  0  0  0  0  0  0  0  0
  -22.6479    7.9912   26.2655 C   0  0  0  0  0  0  0  0  0  0  0  0
  -22.4332    6.8893   29.2435 H   0  0  0  0  0  0  0  0  0  0  0  0
  -17.3653   13.2891   18.6019 C   0  0  0  0  0  0  0  0  0  0  0  0
  -17.0145   14.2540   19.7015 C   0  0  0  0  0  0  0  0  0  0  0  0
  -17.7937   14.1691   20.8457 C   0  0  0  0  0  0  0  0  0  0  0  0
  -17.5528   15.0129   21.9171 C   0  0  0  0  0  0  0  0  0  0  0  0
  -16.5193   15.9364   21.8136 C   0  0  0  0  0  0  0  0  0  0  0  0
  -15.7596   15.9952   20.6563 C   0  0  0  0  0  0  0  0  0  0  0  0
  -15.9859   15.1610   19.5773 C   0  0  0  0  0  0  0  0  0  0  0  0
 22 23  1  0
 23 24  1  0
 24 25  1  0
 25 26  1  0
 26 27  1  0
 27 28  1  0
 28 29  1  0
 29 30  1  0
 30 31  2  0
 31 32  1  0
 32 33  1  0
 33 34  2  0
 34 35  1  0
 35 36  2  0
 36 37  1  0
 37 38  2  0
 25 18  1  0
 18 19  2  0
 18 20  1  0
  1 20  1  0
  1  2  1  0
  1  3  1  0
  3  4  1  0
  4  5  1  0
  4  6  1  0
  6  7  1  0
  7  8  1  0
  8  9  1  0
  9 10  1  0
 10 11  1  0
 11 12  2  0
 11 13  1  0
 13 40  1  0
 40 41  1  0
 41 42  2  0
 42 43  1  0
 43 44  2  0
 44 45  1  0
 45 46  2  0
 13 14  1  0
 14 15  1  0
 15 16  2  0
 28 23  1  0
 37 27  1  0
 38 30  1  0
 38 33  1  0
 15  1  1  0
 14  4  1  0
 10  6  1  0
 46 41  1  0
 32 39  1  0
 20 21  1  0
  5 17  1  0
M  END
> <minimizedAffinity>
-11.09402

> <CNNscore>
0.5840690732

> <CNNaffinity>
8.0981254578

> <CNN_VS>
4.7298645973

> <CNNaffinity_variance>
0.1620313078

$$$$



 46 53  0  0  0  0  0  0  0  0999 V2000
  -20.3226   11.8490   23.4969 C   0  0  0  0  0  0  0  0  0  0  0  0
  -19.6142   11.8625   24.8309 C   0  0  0  0  0  0  0  0  0  0  0  0
  -21.1788   12.9304   23.4834 O   0  0  0  0  0  0  0  0  0  0  0  0
  -20.6148   13.9628   22.7706 C   0  0  0  0  0  0  0  0  0  0  0  0
  -21.5385   14.3502   21.7993 O   0  0  0  0  0  0  0  0  0  0  0  0
  -20.4422   15.1203   23.6998 C   0  0  0  0  0  0  0  0  0  0  0  0
  -21.5169   16.1949   23.5133 C   0  0  0  0  0  0  0  0  0  0  0  0
  -20.8613   17.4191   24.1312 C   0  0  0  0  0  0  0  0  0  0  0  0
  -19.3876   17.1055   24.2711 C   0  0  0  0  0  0  0  0  0  0  0  0
  -19.2543   15.9150   23.4517 N   0  0  0  0  0  0  0  0  0  0  0  0
  -18.2214   15.5131   22.5597 C   0  0  0  0  0  0  0  0  0  0  0  0
  -17.0723   16.0266   22.6021 O   0  0  0  0  0  0  0  0  0  0  0  0
  -18.5158   14.4593   21.5558 C   0  0  0  0  0  0  0  0  0  0  0  0
  -19.3754   13.5063   22.1903 N   0  0  0  0  0  0  0  0  0  0  0  0
  -19.3249   12.0907   22.4217 C   0  0  0  0  0  0  0  0  0  0  0  0
  -18.5804   11.2759   21.8185 O   0  0  0  0  0  0  0  0  0  0  0  0
  -22.0197   13.5622   21.4380 H   0  0  0  0  0  0  0  0  0  0  0  0
  -21.8288   10.3590   22.1388 C   0  0  0  0  0  0  0  0  0  0  0  0
  -21.8775   11.1513   21.1629 O   0  0  0  0  0  0  0  0  0  0  0  0
  -21.0883   10.6399   23.3074 N   0  0  0  0  0  0  0  0  0  0  0  0
  -21.1218    9.8952   24.0663 H   0  0  0  0  0  0  0  0  0  0  0  0
  -20.7638    6.5237   20.5314 C   0  0  0  0  0  0  0  0  0  0  0  0
  -22.0838    6.9427   20.9084 N   0  0  0  0  0  0  0  0  0  0  0  0
  -22.3367    8.3298   20.7665 C   0  0  0  0  0  0  0  0  0  0  0  0
  -22.5954    9.0842   22.0197 C   0  0  0  0  0  0  0  0  0  0  0  0
  -22.4827    8.2601   23.2869 C   0  0  0  0  0  0  0  0  0  0  0  0
  -23.3502    7.0663   23.0325 C   0  0  0  0  0  0  0  0  0  0  0  0
  -22.6597    6.2399   21.9838 C   0  0  0  0  0  0  0  0  0  0  0  0
  -23.5709    5.0861   21.5790 C   0  0  0  0  0  0  0  0  0  0  0  0
  -23.8265    4.2551   22.7814 C   0  0  0  0  0  0  0  0  0  0  0  0
  -24.0860    2.9264   23.0453 C   0  0  0  0  0  0  0  0  0  0  0  0
  -24.2342    2.7766   24.3963 N   0  0  0  0  0  0  0  0  0  0  0  0
  -24.0775    3.9670   25.0037 C   0  0  0  0  0  0  0  0  0  0  0  0
  -24.1096    4.4425   26.2972 C   0  0  0  0  0  0  0  0  0  0  0  0
  -23.8918    5.7995   26.5530 C   0  0  0  0  0  0  0  0  0  0  0  0
  -23.6394    6.6932   25.5109 C   0  0  0  0  0  0  0  0  0  0  0  0
  -23.6065    6.2164   24.2044 C   0  0  0  0  0  0  0  0  0  0  0  0
  -23.8265    4.8767   24.0070 C   0  0  0  0  0  0  0  0  0  0  0  0
  -24.4387    1.8902   24.9205 H   0  0  0  0  0  0  0  0  0  0  0  0
  -19.0971   15.0452   20.2894 C   0  0  0  0  0  0  0  0  0  0  0  0
  -19.0912   13.9286   19.2812 C   0  0  0  0  0  0  0  0  0  0  0  0
  -17.8563   13.3462   19.0380 C   0  0  0  0  0  0  0  0  0  0  0  0
  -17.7421   12.3093   18.1270 C   0  0  0  0  0  0  0  0  0  0  0  0
  -18.8878   11.8743   17.4715 C   0  0  0  0  0  0  0  0  0  0  0  0
  -20.1065   12.4778   17.7375 C   0  0  0  0  0  0  0  0  0  0  0  0
  -20.2390   13.5138   18.6434 C   0  0  0  0  0  0  0  0  0  0  0  0
 22 23  1  0
 23 24  1  0
 24 25  1  0
 25 26  1  0
 26 27  1  0
 27 28  1  0
 28 29  1  0
 29 30  1  0
 30 31  2  0
 31 32  1  0
 32 33  1  0
 33 34  2  0
 34 35  1  0
 35 36  2  0
 36 37  1  0
 37 38  2  0
 25 18  1  0
 18 19  2  0
 18 20  1  0
  1 20  1  0
  1  2  1  0
  1  3  1  0
  3  4  1  0
  4  5  1  0
  4  6  1  0
  6  7  1  0
  7  8  1  0
  8  9  1  0
  9 10  1  0
 10 11  1  0
 11 12  2  0
 11 13  1  0
 13 40  1  0
 40 41  1  0
 41 42  2  0
 42 43  1  0
 43 44  2  0
 44 45  1  0
 45 46  2  0
 13 14  1  0
 14 15  1  0
 15 16  2  0
 28 23  1  0
 37 27  1  0
 38 30  1  0
 38 33  1  0
 15  1  1  0
 14  4  1  0
 10  6  1  0
 46 41  1  0
 32 39  1  0
 20 21  1  0
  5 17  1  0
M  END
> <minimizedAffinity>
-9.46424

> <CNNscore>
0.4932619929

> <CNNaffinity>
7.8451633453

> <CNN_VS>
3.8697209358

> <CNNaffinity_variance>
0.2135430574

$$$$



 46 53  0  0  0  0  0  0  0  0999 V2000
  -20.9357   10.9232   19.8200 C   0  0  0  0  0  0  0  0  0  0  0  0
  -22.2514   11.1879   19.1270 C   0  0  0  0  0  0  0  0  0  0  0  0
  -20.1136   10.3027   18.9024 O   0  0  0  0  0  0  0  0  0  0  0  0
  -19.2385   11.2185   18.3663 C   0  0  0  0  0  0  0  0  0  0  0  0
  -17.9504   10.7086   18.5323 O   0  0  0  0  0  0  0  0  0  0  0  0
  -19.4962   11.2921   16.8962 C   0  0  0  0  0  0  0  0  0  0  0  0
  -18.4624   10.5175   16.0741 C   0  0  0  0  0  0  0  0  0  0  0  0
  -18.6028   11.1496   14.6989 C   0  0  0  0  0  0  0  0  0  0  0  0
  -19.3729   12.4390   14.8840 C   0  0  0  0  0  0  0  0  0  0  0  0
  -19.3249   12.6140   16.3239 N   0  0  0  0  0  0  0  0  0  0  0  0
  -19.1513   13.7862   17.1112 C   0  0  0  0  0  0  0  0  0  0  0  0
  -19.3358   14.9374   16.6351 O   0  0  0  0  0  0  0  0  0  0  0  0
  -18.7418   13.6381   18.5308 C   0  0  0  0  0  0  0  0  0  0  0  0
  -19.4139   12.4816   19.0410 N   0  0  0  0  0  0  0  0  0  0  0  0
  -20.2945   12.2244   20.1449 C   0  0  0  0  0  0  0  0  0  0  0  0
  -20.4523   12.9702   21.1453 O   0  0  0  0  0  0  0  0  0  0  0  0
  -17.8691   10.2352   19.3996 H   0  0  0  0  0  0  0  0  0  0  0  0
  -21.6015   10.5000   22.2098 C   0  0  0  0  0  0  0  0  0  0  0  0
  -21.9534   11.6904   22.4138 O   0  0  0  0  0  0  0  0  0  0  0  0
  -21.0965   10.0610   20.9667 N   0  0  0  0  0  0  0  0  0  0  0  0
  -20.8315    9.0322   20.9126 H   0  0  0  0  0  0  0  0  0  0  0  0
  -24.2909   10.4062   25.5542 C   0  0  0  0  0  0  0  0  0  0  0  0
  -23.1229    9.5888   25.3885 N   0  0  0  0  0  0  0  0  0  0  0  0
  -22.0732   10.1850   24.6463 C   0  0  0  0  0  0  0  0  0  0  0  0
  -21.7376    9.5452   23.3484 C   0  0  0  0  0  0  0  0  0  0  0  0
  -22.6244    8.3740   22.9745 C   0  0  0  0  0  0  0  0  0  0  0  0
  -22.6018    7.4898   24.1828 C   0  0  0  0  0  0  0  0  0  0  0  0
  -23.3619    8.2071   25.2633 C   0  0  0  0  0  0  0  0  0  0  0  0
  -23.2450    7.4175   26.5626 C   0  0  0  0  0  0  0  0  0  0  0  0
  -23.8371    6.0748   26.3427 C   0  0  0  0  0  0  0  0  0  0  0  0
  -24.4889    5.1290   27.1061 C   0  0  0  0  0  0  0  0  0  0  0  0
  -24.7972    4.0656   26.3037 N   0  0  0  0  0  0  0  0  0  0  0  0
  -24.3632    4.3020   25.0521 C   0  0  0  0  0  0  0  0  0  0  0  0
  -24.3766    3.6355   23.8457 C   0  0  0  0  0  0  0  0  0  0  0  0
  -23.8042    4.2211   22.7126 C   0  0  0  0  0  0  0  0  0  0  0  0
  -23.2121    5.4833   22.7805 C   0  0  0  0  0  0  0  0  0  0  0  0
  -23.1970    6.1585   23.9967 C   0  0  0  0  0  0  0  0  0  0  0  0
  -23.7718    5.5405   25.0783 C   0  0  0  0  0  0  0  0  0  0  0  0
  -25.2939    3.1826   26.5790 H   0  0  0  0  0  0  0  0  0  0  0  0
  -17.2381   13.5716   18.6712 C   0  0  0  0  0  0  0  0  0  0  0  0
  -16.8929   14.4849   19.8157 C   0  0  0  0  0  0  0  0  0  0  0  0
  -17.7459   14.4274   20.9078 C   0  0  0  0  0  0  0  0  0  0  0  0
  -17.5163   15.2281   22.0142 C   0  0  0  0  0  0  0  0  0  0  0  0
  -16.4190   16.0808   21.9986 C   0  0  0  0  0  0  0  0  0  0  0  0
  -15.5863   16.1139   20.8916 C   0  0  0  0  0  0  0  0  0  0  0  0
  -15.8001   15.3220   19.7787 C   0  0  0  0  0  0  0  0  0  0  0  0
 22 23  1  0
 23 24  1  0
 24 25  1  0
 25 26  1  0
 26 27  1  0
 27 28  1  0
 28 29  1  0
 29 30  1  0
 30 31  2  0
 31 32  1  0
 32 33  1  0
 33 34  2  0
 34 35  1  0
 35 36  2  0
 36 37  1  0
 37 38  2  0
 25 18  1  0
 18 19  2  0
 18 20  1  0
  1 20  1  0
  1  2  1  0
  1  3  1  0
  3  4  1  0
  4  5  1  0
  4  6  1  0
  6  7  1  0
  7  8  1  0
  8  9  1  0
  9 10  1  0
 10 11  1  0
 11 12  2  0
 11 13  1  0
 13 40  1  0
 40 41  1  0
 41 42  2  0
 42 43  1  0
 43 44  2  0
 44 45  1  0
 45 46  2  0
 13 14  1  0
 14 15  1  0
 15 16  2  0
 28 23  1  0
 37 27  1  0
 38 30  1  0
 38 33  1  0
 15  1  1  0
 14  4  1  0
 10  6  1  0
 46 41  1  0
 32 39  1  0
 20 21  1  0
  5 17  1  0
M  END
> <minimizedAffinity>
-7.12603

> <CNNscore>
0.4856473505

> <CNNaffinity>
7.9624366760

> <CNN_VS>
3.8669362068

> <CNNaffinity_variance>
0.0202101208

$$$$



 46 53  0  0  0  0  0  0  0  0999 V2000
  -19.0757   11.5454   20.6017 C   0  0  0  0  0  0  0  0  0  0  0  0
  -17.9614   11.4503   21.6170 C   0  0  0  0  0  0  0  0  0  0  0  0
  -19.6886   12.7670   20.7881 O   0  0  0  0  0  0  0  0  0  0  0  0
  -19.2373   13.6633   19.8475 C   0  0  0  0  0  0  0  0  0  0  0  0
  -20.3584   14.1988   19.2125 O   0  0  0  0  0  0  0  0  0  0  0  0
  -18.5634   14.7847   20.5695 C   0  0  0  0  0  0  0  0  0  0  0  0
  -19.4387   16.0373   20.6669 C   0  0  0  0  0  0  0  0  0  0  0  0
  -18.4141   17.1287   20.9300 C   0  0  0  0  0  0  0  0  0  0  0  0
  -17.0574   16.5485   20.5945 C   0  0  0  0  0  0  0  0  0  0  0  0
  -17.4166   15.3397   19.8761 N   0  0  0  0  0  0  0  0  0  0  0  0
  -16.8360   14.7365   18.7257 C   0  0  0  0  0  0  0  0  0  0  0  0
  -15.6728   15.0276   18.3407 O   0  0  0  0  0  0  0  0  0  0  0  0
  -17.6304   13.7384   17.9658 C   0  0  0  0  0  0  0  0  0  0  0  0
  -18.3683   12.9737   18.9252 N   0  0  0  0  0  0  0  0  0  0  0  0
  -18.4817   11.5778   19.2394 C   0  0  0  0  0  0  0  0  0  0  0  0
  -18.1384   10.6279   18.4898 O   0  0  0  0  0  0  0  0  0  0  0  0
  -21.0602   13.5080   19.0971 H   0  0  0  0  0  0  0  0  0  0  0  0
  -21.1787   10.6110   21.6203 C   0  0  0  0  0  0  0  0  0  0  0  0
  -21.4179   11.6477   22.2915 O   0  0  0  0  0  0  0  0  0  0  0  0
  -20.0526   10.4969   20.7765 N   0  0  0  0  0  0  0  0  0  0  0  0
  -19.9543    9.5729   20.2589 H   0  0  0  0  0  0  0  0  0  0  0  0
  -20.9570    6.5109   20.3683 C   0  0  0  0  0  0  0  0  0  0  0  0
  -22.1309    7.1839   20.8469 N   0  0  0  0  0  0  0  0  0  0  0  0
  -22.1809    8.5730   20.5711 C   0  0  0  0  0  0  0  0  0  0  0  0
  -22.1442    9.4802   21.7468 C   0  0  0  0  0  0  0  0  0  0  0  0
  -21.9890    8.7777   23.0810 C   0  0  0  0  0  0  0  0  0  0  0  0
  -23.0590    7.7302   23.0765 C   0  0  0  0  0  0  0  0  0  0  0  0
  -22.6566    6.6989   22.0595 C   0  0  0  0  0  0  0  0  0  0  0  0
  -23.7837    5.6832   21.9071 C   0  0  0  0  0  0  0  0  0  0  0  0
  -23.9987    5.0304   23.2221 C   0  0  0  0  0  0  0  0  0  0  0  0
  -24.4241    3.7980   23.6722 C   0  0  0  0  0  0  0  0  0  0  0  0
  -24.4072    3.8094   25.0394 N   0  0  0  0  0  0  0  0  0  0  0  0
  -23.9845    5.0096   25.4769 C   0  0  0  0  0  0  0  0  0  0  0  0
  -23.7641    5.6085   26.6988 C   0  0  0  0  0  0  0  0  0  0  0  0
  -23.3039    6.9271   26.7626 C   0  0  0  0  0  0  0  0  0  0  0  0
  -23.0603    7.6576   25.5983 C   0  0  0  0  0  0  0  0  0  0  0  0
  -23.2818    7.0559   24.3638 C   0  0  0  0  0  0  0  0  0  0  0  0
  -23.7335    5.7605   24.3557 C   0  0  0  0  0  0  0  0  0  0  0  0
  -24.6738    3.0268   25.6865 H   0  0  0  0  0  0  0  0  0  0  0  0
  -18.5028   14.3998   16.9234 C   0  0  0  0  0  0  0  0  0  0  0  0
  -18.9343   13.2996   15.9925 C   0  0  0  0  0  0  0  0  0  0  0  0
  -19.9213   12.4551   16.4781 C   0  0  0  0  0  0  0  0  0  0  0  0
  -20.3893   11.4098   15.6994 C   0  0  0  0  0  0  0  0  0  0  0  0
  -19.8475   11.2340   14.4317 C   0  0  0  0  0  0  0  0  0  0  0  0
  -18.8624   12.0957   13.9765 C   0  0  0  0  0  0  0  0  0  0  0  0
  -18.3834   13.1440   14.7400 C   0  0  0  0  0  0  0  0  0  0  0  0
 22 23  1  0
 23 24  1  0
 24 25  1  0
 25 26  1  0
 26 27  1  0
 27 28  1  0
 28 29  1  0
 29 30  1  0
 30 31  2  0
 31 32  1  0
 32 33  1  0
 33 34  2  0
 34 35  1  0
 35 36  2  0
 36 37  1  0
 37 38  2  0
 25 18  1  0
 18 19  2  0
 18 20  1  0
  1 20  1  0
  1  2  1  0
  1  3  1  0
  3  4  1  0
  4  5  1  0
  4  6  1  0
  6  7  1  0
  7  8  1  0
  8  9  1  0
  9 10  1  0
 10 11  1  0
 11 12  2  0
 11 13  1  0
 13 40  1  0
 40 41  1  0
 41 42  2  0
 42 43  1  0
 43 44  2  0
 44 45  1  0
 45 46  2  0
 13 14  1  0
 14 15  1  0
 15 16  2  0
 28 23  1  0
 37 27  1  0
 38 30  1  0
 38 33  1  0
 15  1  1  0
 14  4  1  0
 10  6  1  0
 46 41  1  0
 32 39  1  0
 20 21  1  0
  5 17  1  0
M  END
> <minimizedAffinity>
-5.09228

> <CNNscore>
0.4401955307

> <CNNaffinity>
7.8445930481

> <CNN_VS>
3.4531548023

> <CNNaffinity_variance>
0.1202257872

$$$$



 46 53  0  0  0  0  0  0  0  0999 V2000
  -18.8049   11.5129   19.9726 C   0  0  0  0  0  0  0  0  0  0  0  0
  -17.5069   11.0910   20.6198 C   0  0  0  0  0  0  0  0  0  0  0  0
  -19.1827   12.7011   20.5626 O   0  0  0  0  0  0  0  0  0  0  0  0
  -18.8466   13.7550   19.7452 C   0  0  0  0  0  0  0  0  0  0  0  0
  -20.0011   14.5140   19.5501 O   0  0  0  0  0  0  0  0  0  0  0  0
  -17.8741   14.6159   20.4842 C   0  0  0  0  0  0  0  0  0  0  0  0
  -18.5211   15.8763   21.0651 C   0  0  0  0  0  0  0  0  0  0  0  0
  -17.3232   16.7883   21.2738 C   0  0  0  0  0  0  0  0  0  0  0  0
  -16.1766   16.1965   20.4834 C   0  0  0  0  0  0  0  0  0  0  0  0
  -16.8575   15.2247   19.6476 N   0  0  0  0  0  0  0  0  0  0  0  0
  -16.6526   14.8658   18.2862 C   0  0  0  0  0  0  0  0  0  0  0  0
  -15.5840   15.1450   17.6810 O   0  0  0  0  0  0  0  0  0  0  0  0
  -17.7330   14.1430   17.5686 C   0  0  0  0  0  0  0  0  0  0  0  0
  -18.3224   13.2352   18.5057 N   0  0  0  0  0  0  0  0  0  0  0  0
  -18.5495   11.8184   18.5404 C   0  0  0  0  0  0  0  0  0  0  0  0
  -18.5262   11.0482   17.5463 O   0  0  0  0  0  0  0  0  0  0  0  0
  -20.7984   13.9289   19.4800 H   0  0  0  0  0  0  0  0  0  0  0  0
  -20.6149   10.4419   21.3548 C   0  0  0  0  0  0  0  0  0  0  0  0
  -20.4445   11.2136   22.3336 O   0  0  0  0  0  0  0  0  0  0  0  0
  -19.8479   10.5351   20.1732 N   0  0  0  0  0  0  0  0  0  0  0  0
  -20.0818    9.8286   19.4132 H   0  0  0  0  0  0  0  0  0  0  0  0
  -20.6973    6.2908   20.2645 C   0  0  0  0  0  0  0  0  0  0  0  0
  -21.8262    7.0781   20.6713 N   0  0  0  0  0  0  0  0  0  0  0  0
  -21.7480    8.4544   20.3427 C   0  0  0  0  0  0  0  0  0  0  0  0
  -21.6769    9.4017   21.4847 C   0  0  0  0  0  0  0  0  0  0  0  0
  -21.6303    8.7427   22.8490 C   0  0  0  0  0  0  0  0  0  0  0  0
  -22.7846    7.7889   22.8410 C   0  0  0  0  0  0  0  0  0  0  0  0
  -22.4347    6.6877   21.8793 C   0  0  0  0  0  0  0  0  0  0  0  0
  -23.6379    5.7644   21.7202 C   0  0  0  0  0  0  0  0  0  0  0  0
  -23.9550    5.1850   23.0489 C   0  0  0  0  0  0  0  0  0  0  0  0
  -24.4995    4.0115   23.5269 C   0  0  0  0  0  0  0  0  0  0  0  0
  -24.5312    4.0762   24.8924 N   0  0  0  0  0  0  0  0  0  0  0  0
  -24.0241    5.2535   25.3017 C   0  0  0  0  0  0  0  0  0  0  0  0
  -23.7980    5.8804   26.5084 C   0  0  0  0  0  0  0  0  0  0  0  0
  -23.2299    7.1573   26.5416 C   0  0  0  0  0  0  0  0  0  0  0  0
  -22.8832    7.8178   25.3618 C   0  0  0  0  0  0  0  0  0  0  0  0
  -23.1103    7.1877   24.1424 C   0  0  0  0  0  0  0  0  0  0  0  0
  -23.6698    5.9353   24.1643 C   0  0  0  0  0  0  0  0  0  0  0  0
  -24.8866    3.3451   25.5569 H   0  0  0  0  0  0  0  0  0  0  0  0
  -18.7268   15.1002   16.9509 C   0  0  0  0  0  0  0  0  0  0  0  0
  -17.9073   16.1084   16.1926 C   0  0  0  0  0  0  0  0  0  0  0  0
  -17.6051   15.7722   14.8814 C   0  0  0  0  0  0  0  0  0  0  0  0
  -16.8555   16.6325   14.0965 C   0  0  0  0  0  0  0  0  0  0  0  0
  -16.4201   17.8286   14.6544 C   0  0  0  0  0  0  0  0  0  0  0  0
  -16.7394   18.1343   15.9677 C   0  0  0  0  0  0  0  0  0  0  0  0
  -17.4864   17.2878   16.7656 C   0  0  0  0  0  0  0  0  0  0  0  0
 22 23  1  0
 23 24  1  0
 24 25  1  0
 25 26  1  0
 26 27  1  0
 27 28  1  0
 28 29  1  0
 29 30  1  0
 30 31  2  0
 31 32  1  0
 32 33  1  0
 33 34  2  0
 34 35  1  0
 35 36  2  0
 36 37  1  0
 37 38  2  0
 25 18  1  0
 18 19  2  0
 18 20  1  0
  1 20  1  0
  1  2  1  0
  1  3  1  0
  3  4  1  0
  4  5  1  0
  4  6  1  0
  6  7  1  0
  7  8  1  0
  8  9  1  0
  9 10  1  0
 10 11  1  0
 11 12  2  0
 11 13  1  0
 13 40  1  0
 40 41  1  0
 41 42  2  0
 42 43  1  0
 43 44  2  0
 44 45  1  0
 45 46  2  0
 13 14  1  0
 14 15  1  0
 15 16  2  0
 28 23  1  0
 37 27  1  0
 38 30  1  0
 38 33  1  0
 15  1  1  0
 14  4  1  0
 10  6  1  0
 46 41  1  0
 32 39  1  0
 20 21  1  0
  5 17  1  0
M  END
> <minimizedAffinity>
-5.10075

> <CNNscore>
0.4304333925

> <CNNaffinity>
7.8747596741

> <CNN_VS>
3.3895595074

> <CNNaffinity_variance>
0.1525712609

$$$$



 46 53  0  0  0  0  0  0  0  0999 V2000
  -20.9306    7.8759   20.8935 C   0  0  0  0  0  0  0  0  0  0  0  0
  -19.8256    6.9103   21.2516 C   0  0  0  0  0  0  0  0  0  0  0  0
  -22.0356    7.1199   20.5617 O   0  0  0  0  0  0  0  0  0  0  0  0
  -22.9062    7.0747   21.6255 C   0  0  0  0  0  0  0  0  0  0  0  0
  -24.1546    7.4870   21.1585 O   0  0  0  0  0  0  0  0  0  0  0  0
  -23.0432    5.6470   22.0450 C   0  0  0  0  0  0  0  0  0  0  0  0
  -24.3437    5.0069   21.5516 C   0  0  0  0  0  0  0  0  0  0  0  0
  -24.5008    3.8249   22.4943 C   0  0  0  0  0  0  0  0  0  0  0  0
  -23.5610    4.0613   23.6565 C   0  0  0  0  0  0  0  0  0  0  0  0
  -23.2018    5.4556   23.4741 N   0  0  0  0  0  0  0  0  0  0  0  0
  -23.0179    6.4986   24.4241 C   0  0  0  0  0  0  0  0  0  0  0  0
  -22.8310    6.2567   25.6458 O   0  0  0  0  0  0  0  0  0  0  0  0
  -23.0485    7.9064   23.9529 C   0  0  0  0  0  0  0  0  0  0  0  0
  -22.4077    7.9325   22.6729 N   0  0  0  0  0  0  0  0  0  0  0  0
  -21.3018    8.6510   22.1064 C   0  0  0  0  0  0  0  0  0  0  0  0
  -20.7949    9.7029   22.5740 O   0  0  0  0  0  0  0  0  0  0  0  0
  -24.0576    8.2138   20.4912 H   0  0  0  0  0  0  0  0  0  0  0  0
  -19.8191    9.8949   19.8828 C   0  0  0  0  0  0  0  0  0  0  0  0
  -19.3958   10.3228   20.9874 O   0  0  0  0  0  0  0  0  0  0  0  0
  -20.5738    8.7073   19.7685 N   0  0  0  0  0  0  0  0  0  0  0  0
  -20.8771    8.4452   18.7832 H   0  0  0  0  0  0  0  0  0  0  0  0
  -22.0519   12.8668   17.7358 C   0  0  0  0  0  0  0  0  0  0  0  0
  -20.8345   12.2464   17.2965 N   0  0  0  0  0  0  0  0  0  0  0  0
  -20.6386   10.9190   17.7526 C   0  0  0  0  0  0  0  0  0  0  0  0
  -19.4910   10.6999   18.6699 C   0  0  0  0  0  0  0  0  0  0  0  0
  -18.7301   11.9576   19.0399 C   0  0  0  0  0  0  0  0  0  0  0  0
  -18.4227   12.6064   17.7259 C   0  0  0  0  0  0  0  0  0  0  0  0
  -19.7268   13.1059   17.1696 C   0  0  0  0  0  0  0  0  0  0  0  0
  -19.4940   13.6457   15.7625 C   0  0  0  0  0  0  0  0  0  0  0  0
  -18.5269   14.7674   15.8517 C   0  0  0  0  0  0  0  0  0  0  0  0
  -18.2770   15.9334   15.1586 C   0  0  0  0  0  0  0  0  0  0  0  0
  -17.2158   16.5646   15.7461 N   0  0  0  0  0  0  0  0  0  0  0  0
  -16.7800   15.8391   16.7923 C   0  0  0  0  0  0  0  0  0  0  0  0
  -15.7844   15.9469   17.7395 C   0  0  0  0  0  0  0  0  0  0  0  0
  -15.6289   14.9547   18.7120 C   0  0  0  0  0  0  0  0  0  0  0  0
  -16.4729   13.8433   18.7425 C   0  0  0  0  0  0  0  0  0  0  0  0
  -17.4787   13.7317   17.7879 C   0  0  0  0  0  0  0  0  0  0  0  0
  -17.5891   14.7321   16.8555 C   0  0  0  0  0  0  0  0  0  0  0  0
  -16.7770   17.4742   15.4592 H   0  0  0  0  0  0  0  0  0  0  0  0
  -24.4570    8.4550   23.9324 C   0  0  0  0  0  0  0  0  0  0  0  0
  -24.6188    9.2159   25.2201 C   0  0  0  0  0  0  0  0  0  0  0  0
  -23.6318   10.1512   25.4927 C   0  0  0  0  0  0  0  0  0  0  0  0
  -23.6877   10.9053   26.6529 C   0  0  0  0  0  0  0  0  0  0  0  0
  -24.7495   10.7001   27.5259 C   0  0  0  0  0  0  0  0  0  0  0  0
  -25.7192    9.7576   27.2237 C   0  0  0  0  0  0  0  0  0  0  0  0
  -25.6794    8.9960   26.0705 C   0  0  0  0  0  0  0  0  0  0  0  0
 22 23  1  0
 23 24  1  0
 24 25  1  0
 25 26  1  0
 26 27  1  0
 27 28  1  0
 28 29  1  0
 29 30  1  0
 30 31  2  0
 31 32  1  0
 32 33  1  0
 33 34  2  0
 34 35  1  0
 35 36  2  0
 36 37  1  0
 37 38  2  0
 25 18  1  0
 18 19  2  0
 18 20  1  0
  1 20  1  0
  1  2  1  0
  1  3  1  0
  3  4  1  0
  4  5  1  0
  4  6  1  0
  6  7  1  0
  7  8  1  0
  8  9  1  0
  9 10  1  0
 10 11  1  0
 11 12  2  0
 11 13  1  0
 13 40  1  0
 40 41  1  0
 41 42  2  0
 42 43  1  0
 43 44  2  0
 44 45  1  0
 45 46  2  0
 13 14  1  0
 14 15  1  0
 15 16  2  0
 28 23  1  0
 37 27  1  0
 38 30  1  0
 38 33  1  0
 15  1  1  0
 14  4  1  0
 10  6  1  0
 46 41  1  0
 32 39  1  0
 20 21  1  0
  5 17  1  0
M  END
> <minimizedAffinity>
1.69016

> <CNNscore>
0.3871422410

> <CNNaffinity>
7.7072772980

> <CNN_VS>
2.9838125706

> <CNNaffinity_variance>
0.0208893418

$$$$



 46 53  0  0  0  0  0  0  0  0999 V2000
  -20.9468   12.4794   23.9512 C   0  0  0  0  0  0  0  0  0  0  0  0
  -22.0742   13.2914   23.3585 C   0  0  0  0  0  0  0  0  0  0  0  0
  -21.1249   12.4796   25.3190 O   0  0  0  0  0  0  0  0  0  0  0  0
  -21.7070   11.2975   25.7135 C   0  0  0  0  0  0  0  0  0  0  0  0
  -20.9010   10.7507   26.7126 O   0  0  0  0  0  0  0  0  0  0  0  0
  -23.0243   11.6222   26.3400 C   0  0  0  0  0  0  0  0  0  0  0  0
  -22.9808   11.5732   27.8698 C   0  0  0  0  0  0  0  0  0  0  0  0
  -24.4480   11.4066   28.2302 C   0  0  0  0  0  0  0  0  0  0  0  0
  -25.1677   10.9938   26.9648 C   0  0  0  0  0  0  0  0  0  0  0  0
  -24.0632   10.6407   26.0921 N   0  0  0  0  0  0  0  0  0  0  0  0
  -23.9234    9.5794   25.1548 C   0  0  0  0  0  0  0  0  0  0  0  0
  -24.9209    8.9515   24.7114 O   0  0  0  0  0  0  0  0  0  0  0  0
  -22.5613    9.2101   24.6932 C   0  0  0  0  0  0  0  0  0  0  0  0
  -21.8181   10.4273   24.5682 N   0  0  0  0  0  0  0  0  0  0  0  0
  -21.0896   11.0671   23.5099 C   0  0  0  0  0  0  0  0  0  0  0  0
  -20.6832   10.5089   22.4586 O   0  0  0  0  0  0  0  0  0  0  0  0
  -19.9424   10.9139   26.5191 H   0  0  0  0  0  0  0  0  0  0  0  0
  -19.4192   14.4360   23.5371 C   0  0  0  0  0  0  0  0  0  0  0  0
  -20.3269   15.2911   23.7026 O   0  0  0  0  0  0  0  0  0  0  0  0
  -19.6560   13.0484   23.6444 N   0  0  0  0  0  0  0  0  0  0  0  0
  -18.8118   12.4215   23.4836 H   0  0  0  0  0  0  0  0  0  0  0  0
  -18.0973   17.8597   21.3103 C   0  0  0  0  0  0  0  0  0  0  0  0
  -17.2701   16.7777   21.7630 N   0  0  0  0  0  0  0  0  0  0  0  0
  -17.9206   15.5220   21.8538 C   0  0  0  0  0  0  0  0  0  0  0  0
  -18.0539   14.9458   23.2164 C   0  0  0  0  0  0  0  0  0  0  0  0
  -17.5268   15.8295   24.3295 C   0  0  0  0  0  0  0  0  0  0  0  0
  -16.1431   16.1961   23.8897 C   0  0  0  0  0  0  0  0  0  0  0  0
  -16.2891   17.1201   22.7130 C   0  0  0  0  0  0  0  0  0  0  0  0
  -14.9091   17.4083   22.1318 C   0  0  0  0  0  0  0  0  0  0  0  0
  -14.0923   18.0637   23.1831 C   0  0  0  0  0  0  0  0  0  0  0  0
  -13.0600   18.9773   23.2268 C   0  0  0  0  0  0  0  0  0  0  0  0
  -12.7256   19.1871   24.5360 N   0  0  0  0  0  0  0  0  0  0  0  0
  -13.5115   18.4368   25.3298 C   0  0  0  0  0  0  0  0  0  0  0  0
  -13.6520   18.2221   26.6841 C   0  0  0  0  0  0  0  0  0  0  0  0
  -14.6198   17.3315   27.1581 C   0  0  0  0  0  0  0  0  0  0  0  0
  -15.4568   16.6471   26.2752 C   0  0  0  0  0  0  0  0  0  0  0  0
  -15.3173   16.8616   24.9077 C   0  0  0  0  0  0  0  0  0  0  0  0
  -14.3528   17.7453   24.4943 C   0  0  0  0  0  0  0  0  0  0  0  0
  -11.9795   19.8248   24.9087 H   0  0  0  0  0  0  0  0  0  0  0  0
  -21.9158    8.2025   25.6169 C   0  0  0  0  0  0  0  0  0  0  0  0
  -22.6638    6.9145   25.4051 C   0  0  0  0  0  0  0  0  0  0  0  0
  -23.4085    6.4681   26.4865 C   0  0  0  0  0  0  0  0  0  0  0  0
  -24.1345    5.2923   26.3948 C   0  0  0  0  0  0  0  0  0  0  0  0
  -24.0956    4.5811   25.2014 C   0  0  0  0  0  0  0  0  0  0  0  0
  -23.3414    5.0548   24.1399 C   0  0  0  0  0  0  0  0  0  0  0  0
  -22.6108    6.2262   24.2136 C   0  0  0  0  0  0  0  0  0  0  0  0
 22 23  1  0
 23 24  1  0
 24 25  1  0
 25 26  1  0
 26 27  1  0
 27 28  1  0
 28 29  1  0
 29 30  1  0
 30 31  2  0
 31 32  1  0
 32 33  1  0
 33 34  2  0
 34 35  1  0
 35 36  2  0
 36 37  1  0
 37 38  2  0
 25 18  1  0
 18 19  2  0
 18 20  1  0
  1 20  1  0
  1  2  1  0
  1  3  1  0
  3  4  1  0
  4  5  1  0
  4  6  1  0
  6  7  1  0
  7  8  1  0
  8  9  1  0
  9 10  1  0
 10 11  1  0
 11 12  2  0
 11 13  1  0
 13 40  1  0
 40 41  1  0
 41 42  2  0
 42 43  1  0
 43 44  2  0
 44 45  1  0
 45 46  2  0
 13 14  1  0
 14 15  1  0
 15 16  2  0
 28 23  1  0
 37 27  1  0
 38 30  1  0
 38 33  1  0
 15  1  1  0
 14  4  1  0
 10  6  1  0
 46 41  1  0
 32 39  1  0
 20 21  1  0
  5 17  1  0
M  END
> <minimizedAffinity>
-10.37492

> <CNNscore>
0.3782603443

> <CNNaffinity>
6.7711486816

> <CNN_VS>
2.5612571239

> <CNNaffinity_variance>
0.5143194199

$$$$
