
     RDKit          3D

 56 59  0  0  0  0  0  0  0  0999 V2000
   -2.7400    1.5246   -0.5131 N   0  0  0  0  0  4  0  0  0  0  0  0
   -3.7852    2.1033    0.2687 C   0  0  0  0  0  0  0  0  0  0  0  0
   -4.3289    1.2835    1.3821 C   0  0  0  0  0  0  0  0  0  0  0  0
   -4.8970    0.0279    0.8827 C   0  0  0  0  0  0  0  0  0  0  0  0
   -6.2652   -0.1472    0.6646 C   0  0  0  0  0  0  0  0  0  0  0  0
   -6.4983   -1.3833    0.1895 N   0  0  0  0  0  0  0  0  0  0  0  0
   -5.3389   -2.0297    0.0859 C   0  0  0  0  0  0  0  0  0  0  0  0
   -5.0361   -3.3074   -0.3368 C   0  0  0  0  0  0  0  0  0  0  0  0
   -3.7206   -3.7216   -0.3306 C   0  0  0  0  0  0  0  0  0  0  0  0
   -2.6988   -2.8673    0.0962 C   0  0  0  0  0  0  0  0  0  0  0  0
   -1.4217   -3.3873    0.0620 O   0  0  0  0  0  0  0  0  0  0  0  0
   -0.3089   -2.6433    0.4390 C   0  0  0  0  0  0  0  0  0  0  0  0
   -0.1799   -1.4666   -0.4840 C   0  0  0  0  0  0  0  0  0  0  0  0
   -0.9871   -1.3067   -1.4626 O   0  0  0  0  0  0  0  0  0  0  0  0
    0.8659   -0.5325   -0.2411 N   0  0  0  0  0  0  0  0  0  0  0  0
    1.7811   -0.6943    0.8576 C   0  0  0  0  0  0  0  0  0  0  0  0
    2.4527    0.6656    1.0811 C   0  0  0  0  0  0  0  0  0  0  0  0
    3.1977    0.9357   -0.1282 N   0  0  0  0  0  0  0  0  0  0  0  0
    2.4412    0.9600   -1.3694 C   0  0  0  0  0  0  0  0  0  0  0  0
    0.9908    0.6006   -1.1417 C   0  0  0  0  0  0  0  0  0  0  0  0
    4.5843    1.1781   -0.1816 C   0  0  0  0  0  0  0  0  0  0  0  0
    5.3795    1.3015    0.9397 C   0  0  0  0  0  0  0  0  0  0  0  0
    6.7343    1.5319    0.8307 C   0  0  0  0  0  0  0  0  0  0  0  0
    7.3773    1.6529   -0.3818 C   0  0  0  0  0  0  0  0  0  0  0  0
    6.5796    1.5292   -1.5229 C   0  0  0  0  0  0  0  0  0  0  0  0
    5.2260    1.2989   -1.4031 C   0  0  0  0  0  0  0  0  0  0  0  0
    8.7848    1.8932   -0.5088 C   0  0  0  0  0  0  0  0  0  0  0  0
    9.9282    2.0711   -0.6012 N   0  0  0  0  0  0  0  0  0  0  0  0
   -3.0231   -1.6018    0.5122 C   0  0  0  0  0  0  0  0  0  0  0  0
   -4.3281   -1.1650    0.5143 C   0  0  0  0  0  0  0  0  0  0  0  0
   -3.0697    0.7460   -1.1224 H   0  0  0  0  0  0  0  0  0  0  0  0
   -2.3806    2.2593   -1.1928 H   0  0  0  0  0  0  0  0  0  0  0  0
   -1.9240    1.2724    0.0756 H   0  0  0  0  0  0  0  0  0  0  0  0
   -4.6249    2.3741   -0.4416 H   0  0  0  0  0  0  0  0  0  0  0  0
   -3.4257    3.0998    0.6513 H   0  0  0  0  0  0  0  0  0  0  0  0
   -5.1019    1.9067    1.9012 H   0  0  0  0  0  0  0  0  0  0  0  0
   -3.4675    1.0982    2.0958 H   0  0  0  0  0  0  0  0  0  0  0  0
   -7.0413    0.5849    0.8421 H   0  0  0  0  0  0  0  0  0  0  0  0
   -7.4355   -1.8098   -0.0710 H   0  0  0  0  0  0  0  0  0  0  0  0
   -5.8221   -3.9778   -0.6697 H   0  0  0  0  0  0  0  0  0  0  0  0
   -3.5122   -4.7320   -0.6689 H   0  0  0  0  0  0  0  0  0  0  0  0
   -0.4374   -2.3113    1.4907 H   0  0  0  0  0  0  0  0  0  0  0  0
    0.6199   -3.2521    0.3492 H   0  0  0  0  0  0  0  0  0  0  0  0
    1.3031   -1.0862    1.7672 H   0  0  0  0  0  0  0  0  0  0  0  0
    2.6312   -1.3636    0.5504 H   0  0  0  0  0  0  0  0  0  0  0  0
    1.6763    1.4650    1.1973 H   0  0  0  0  0  0  0  0  0  0  0  0
    3.0850    0.5462    1.9547 H   0  0  0  0  0  0  0  0  0  0  0  0
    2.4724    1.9952   -1.7644 H   0  0  0  0  0  0  0  0  0  0  0  0
    2.8791    0.2645   -2.0825 H   0  0  0  0  0  0  0  0  0  0  0  0
    0.5379    0.3778   -2.1290 H   0  0  0  0  0  0  0  0  0  0  0  0
    0.4688    1.4730   -0.7192 H   0  0  0  0  0  0  0  0  0  0  0  0
    4.9768    1.2254    1.9299 H   0  0  0  0  0  0  0  0  0  0  0  0
    7.3457    1.6264    1.7223 H   0  0  0  0  0  0  0  0  0  0  0  0
    7.0773    1.6228   -2.4975 H   0  0  0  0  0  0  0  0  0  0  0  0
    4.6694    1.2129   -2.3268 H   0  0  0  0  0  0  0  0  0  0  0  0
   -2.2661   -0.9218    0.8645 H   0  0  0  0  0  0  0  0  0  0  0  0
  1  2  1  0
  2  3  1  0
  3  4  1  0
  4  5  2  0
  5  6  1  0
  6  7  1  0
  7  8  2  0
  8  9  1  0
  9 10  2  0
 10 11  1  0
 11 12  1  0
 12 13  1  0
 13 14  2  0
 13 15  1  0
 15 16  1  0
 16 17  1  0
 17 18  1  0
 18 19  1  0
 19 20  1  0
 18 21  1  0
 21 22  2  0
 22 23  1  0
 23 24  2  0
 24 25  1  0
 25 26  2  0
 24 27  1  0
 27 28  3  0
 10 29  1  0
 29 30  2  0
 30  4  1  0
 30  7  1  0
 20 15  1  0
 26 21  1  0
  1 31  1  0
  1 32  1  0
  1 33  1  0
  2 34  1  0
  2 35  1  0
  3 36  1  0
  3 37  1  0
  5 38  1  0
  6 39  1  0
  8 40  1  0
  9 41  1  0
 12 42  1  0
 12 43  1  0
 16 44  1  0
 16 45  1  0
 17 46  1  0
 17 47  1  0
 19 48  1  0
 19 49  1  0
 20 50  1  0
 20 51  1  0
 22 52  1  0
 23 53  1  0
 25 54  1  0
 26 55  1  0
 29 56  1  0
M  CHG  1   1   1
M  END
$$$$
